
---------- Begin Simulation Statistics ----------
final_tick                               1108204673000                       # Number of ticks from beginning of simulation (restored from checkpoints and never reset)
host_inst_rate                                 219899                       # Simulator instruction rate (inst/s)
host_mem_usage                                1474468                       # Number of bytes of host memory used
host_op_rate                                   366795                       # Simulator op (including micro ops) rate (op/s)
host_seconds                                  1493.05                       # Real time elapsed on the host
host_tick_rate                              742243309                       # Simulator tick rate (ticks/s)
sim_freq                                 1000000000000                       # Frequency of simulated ticks
sim_insts                                   328319668                       # Number of instructions simulated
sim_ops                                     547643155                       # Number of ops (including micro ops) simulated
sim_seconds                                  1.108205                       # Number of seconds simulated
sim_ticks                                1108204673000                       # Number of ticks simulated
system.cpu0.Branches                         31200199                       # Number of branches fetched
system.cpu0.committedInsts                  274236123                       # Number of instructions committed
system.cpu0.committedOps                    454676486                       # Number of ops (including micro ops) committed
system.cpu0.idle_fraction                    0.000000                       # Percentage of idle cycles
system.cpu0.not_idle_fraction                1.000000                       # Percentage of non-idle cycles
system.cpu0.numCycles                      1108204673                       # number of cpu cycles simulated
system.cpu0.numWorkItemsCompleted                   0                       # number of work items this cpu completed
system.cpu0.numWorkItemsStarted                     0                       # number of work items this cpu started
system.cpu0.num_busy_cycles              1108204672.999000                       # Number of busy cycles
system.cpu0.num_cc_register_reads           168793252                       # number of times the CC registers were read
system.cpu0.num_cc_register_writes          169619573                       # number of times the CC registers were written
system.cpu0.num_conditional_control_insts     30668793                       # number of instructions that are conditional controls
system.cpu0.num_fp_alu_accesses                  1150                       # Number of float alu accesses
system.cpu0.num_fp_insts                         1150                       # number of float instructions
system.cpu0.num_fp_register_reads                1322                       # number of times the floating registers were read
system.cpu0.num_fp_register_writes                637                       # number of times the floating registers were written
system.cpu0.num_func_calls                     455014                       # number of times a function call or return occured
system.cpu0.num_idle_cycles                  0.001000                       # Number of idle cycles
system.cpu0.num_int_alu_accesses            454296939                       # Number of integer alu accesses
system.cpu0.num_int_insts                   454296939                       # number of integer instructions
system.cpu0.num_int_register_reads          812224031                       # number of times the integer registers were read
system.cpu0.num_int_register_writes         405573031                       # number of times the integer registers were written
system.cpu0.num_load_insts                   94426196                       # Number of load instructions
system.cpu0.num_mem_refs                    111950063                       # number of memory refs
system.cpu0.num_store_insts                  17523867                       # Number of store instructions
system.cpu0.num_vec_alu_accesses                    0                       # Number of vector alu accesses
system.cpu0.num_vec_insts                           0                       # number of vector instructions
system.cpu0.num_vec_register_reads                  0                       # number of times the vector registers were read
system.cpu0.num_vec_register_writes                 0                       # number of times the vector registers were written
system.cpu0.op_class::No_OpClass               227646      0.05%      0.05% # Class of executed instruction
system.cpu0.op_class::IntAlu                342498074     75.33%     75.38% # Class of executed instruction
system.cpu0.op_class::IntMult                     205      0.00%     75.38% # Class of executed instruction
system.cpu0.op_class::IntDiv                       21      0.00%     75.38% # Class of executed instruction
system.cpu0.op_class::FloatAdd                    135      0.00%     75.38% # Class of executed instruction
system.cpu0.op_class::FloatCmp                      0      0.00%     75.38% # Class of executed instruction
system.cpu0.op_class::FloatCvt                      0      0.00%     75.38% # Class of executed instruction
system.cpu0.op_class::FloatMult                     0      0.00%     75.38% # Class of executed instruction
system.cpu0.op_class::FloatMultAcc                  0      0.00%     75.38% # Class of executed instruction
system.cpu0.op_class::FloatDiv                      0      0.00%     75.38% # Class of executed instruction
system.cpu0.op_class::FloatMisc                     0      0.00%     75.38% # Class of executed instruction
system.cpu0.op_class::FloatSqrt                     0      0.00%     75.38% # Class of executed instruction
system.cpu0.op_class::SimdAdd                       0      0.00%     75.38% # Class of executed instruction
system.cpu0.op_class::SimdAddAcc                    0      0.00%     75.38% # Class of executed instruction
system.cpu0.op_class::SimdAlu                      94      0.00%     75.38% # Class of executed instruction
system.cpu0.op_class::SimdCmp                       0      0.00%     75.38% # Class of executed instruction
system.cpu0.op_class::SimdCvt                      46      0.00%     75.38% # Class of executed instruction
system.cpu0.op_class::SimdMisc                    215      0.00%     75.38% # Class of executed instruction
system.cpu0.op_class::SimdMult                      0      0.00%     75.38% # Class of executed instruction
system.cpu0.op_class::SimdMultAcc                   0      0.00%     75.38% # Class of executed instruction
system.cpu0.op_class::SimdShift                     0      0.00%     75.38% # Class of executed instruction
system.cpu0.op_class::SimdShiftAcc                  0      0.00%     75.38% # Class of executed instruction
system.cpu0.op_class::SimdDiv                       0      0.00%     75.38% # Class of executed instruction
system.cpu0.op_class::SimdSqrt                      0      0.00%     75.38% # Class of executed instruction
system.cpu0.op_class::SimdFloatAdd                  0      0.00%     75.38% # Class of executed instruction
system.cpu0.op_class::SimdFloatAlu                  0      0.00%     75.38% # Class of executed instruction
system.cpu0.op_class::SimdFloatCmp                  0      0.00%     75.38% # Class of executed instruction
system.cpu0.op_class::SimdFloatCvt                  0      0.00%     75.38% # Class of executed instruction
system.cpu0.op_class::SimdFloatDiv                  0      0.00%     75.38% # Class of executed instruction
system.cpu0.op_class::SimdFloatMisc                 0      0.00%     75.38% # Class of executed instruction
system.cpu0.op_class::SimdFloatMult                 0      0.00%     75.38% # Class of executed instruction
system.cpu0.op_class::SimdFloatMultAcc              0      0.00%     75.38% # Class of executed instruction
system.cpu0.op_class::SimdFloatSqrt                 0      0.00%     75.38% # Class of executed instruction
system.cpu0.op_class::SimdReduceAdd                 0      0.00%     75.38% # Class of executed instruction
system.cpu0.op_class::SimdReduceAlu                 0      0.00%     75.38% # Class of executed instruction
system.cpu0.op_class::SimdReduceCmp                 0      0.00%     75.38% # Class of executed instruction
system.cpu0.op_class::SimdFloatReduceAdd            0      0.00%     75.38% # Class of executed instruction
system.cpu0.op_class::SimdFloatReduceCmp            0      0.00%     75.38% # Class of executed instruction
system.cpu0.op_class::SimdAes                       0      0.00%     75.38% # Class of executed instruction
system.cpu0.op_class::SimdAesMix                    0      0.00%     75.38% # Class of executed instruction
system.cpu0.op_class::SimdSha1Hash                  0      0.00%     75.38% # Class of executed instruction
system.cpu0.op_class::SimdSha1Hash2                 0      0.00%     75.38% # Class of executed instruction
system.cpu0.op_class::SimdSha256Hash                0      0.00%     75.38% # Class of executed instruction
system.cpu0.op_class::SimdSha256Hash2               0      0.00%     75.38% # Class of executed instruction
system.cpu0.op_class::SimdShaSigma2                 0      0.00%     75.38% # Class of executed instruction
system.cpu0.op_class::SimdShaSigma3                 0      0.00%     75.38% # Class of executed instruction
system.cpu0.op_class::SimdPredAlu                   0      0.00%     75.38% # Class of executed instruction
system.cpu0.op_class::MemRead                94426142     20.77%     96.15% # Class of executed instruction
system.cpu0.op_class::MemWrite               17523400      3.85%    100.00% # Class of executed instruction
system.cpu0.op_class::FloatMemRead                 54      0.00%    100.00% # Class of executed instruction
system.cpu0.op_class::FloatMemWrite               467      0.00%    100.00% # Class of executed instruction
system.cpu0.op_class::IprAccess                     0      0.00%    100.00% # Class of executed instruction
system.cpu0.op_class::InstPrefetch                  0      0.00%    100.00% # Class of executed instruction
system.cpu0.op_class::total                 454676499                       # Class of executed instruction
system.cpu0.workload.numSyscalls                   10                       # Number of system calls
system.cpu1.Branches                             4582                       # Number of branches fetched
system.cpu1.committedInsts                      22212                       # Number of instructions committed
system.cpu1.committedOps                        42928                       # Number of ops (including micro ops) committed
system.cpu1.idle_fraction                    0.999802                       # Percentage of idle cycles
system.cpu1.not_idle_fraction                0.000198                       # Percentage of non-idle cycles
system.cpu1.numCycles                       359222194                       # number of cpu cycles simulated
system.cpu1.numWorkItemsCompleted                   0                       # number of work items this cpu completed
system.cpu1.numWorkItemsStarted                     0                       # number of work items this cpu started
system.cpu1.num_busy_cycles              71153.700870                       # Number of busy cycles
system.cpu1.num_cc_register_reads               21981                       # number of times the CC registers were read
system.cpu1.num_cc_register_writes              12688                       # number of times the CC registers were written
system.cpu1.num_conditional_control_insts         3244                       # number of instructions that are conditional controls
system.cpu1.num_fp_alu_accesses                  2205                       # Number of float alu accesses
system.cpu1.num_fp_insts                         2205                       # number of float instructions
system.cpu1.num_fp_register_reads                2358                       # number of times the floating registers were read
system.cpu1.num_fp_register_writes               1079                       # number of times the floating registers were written
system.cpu1.num_func_calls                        982                       # number of times a function call or return occured
system.cpu1.num_idle_cycles              359151040.299130                       # Number of idle cycles
system.cpu1.num_int_alu_accesses                41240                       # Number of integer alu accesses
system.cpu1.num_int_insts                       41240                       # number of integer instructions
system.cpu1.num_int_register_reads              81440                       # number of times the integer registers were read
system.cpu1.num_int_register_writes             31910                       # number of times the integer registers were written
system.cpu1.num_load_insts                       4986                       # Number of load instructions
system.cpu1.num_mem_refs                         9561                       # number of memory refs
system.cpu1.num_store_insts                      4575                       # Number of store instructions
system.cpu1.num_vec_alu_accesses                    0                       # Number of vector alu accesses
system.cpu1.num_vec_insts                           0                       # number of vector instructions
system.cpu1.num_vec_register_reads                  0                       # number of times the vector registers were read
system.cpu1.num_vec_register_writes                 0                       # number of times the vector registers were written
system.cpu1.op_class::No_OpClass                  697      1.62%      1.62% # Class of executed instruction
system.cpu1.op_class::IntAlu                    31927     74.30%     75.92% # Class of executed instruction
system.cpu1.op_class::IntMult                      14      0.03%     75.95% # Class of executed instruction
system.cpu1.op_class::IntDiv                       42      0.10%     76.05% # Class of executed instruction
system.cpu1.op_class::FloatAdd                    183      0.43%     76.47% # Class of executed instruction
system.cpu1.op_class::FloatCmp                      0      0.00%     76.47% # Class of executed instruction
system.cpu1.op_class::FloatCvt                      0      0.00%     76.47% # Class of executed instruction
system.cpu1.op_class::FloatMult                     0      0.00%     76.47% # Class of executed instruction
system.cpu1.op_class::FloatMultAcc                  0      0.00%     76.47% # Class of executed instruction
system.cpu1.op_class::FloatDiv                      0      0.00%     76.47% # Class of executed instruction
system.cpu1.op_class::FloatMisc                     0      0.00%     76.47% # Class of executed instruction
system.cpu1.op_class::FloatSqrt                     0      0.00%     76.47% # Class of executed instruction
system.cpu1.op_class::SimdAdd                       0      0.00%     76.47% # Class of executed instruction
system.cpu1.op_class::SimdAddAcc                    0      0.00%     76.47% # Class of executed instruction
system.cpu1.op_class::SimdAlu                     134      0.31%     76.79% # Class of executed instruction
system.cpu1.op_class::SimdCmp                       0      0.00%     76.79% # Class of executed instruction
system.cpu1.op_class::SimdCvt                      62      0.14%     76.93% # Class of executed instruction
system.cpu1.op_class::SimdMisc                    346      0.81%     77.73% # Class of executed instruction
system.cpu1.op_class::SimdMult                      0      0.00%     77.73% # Class of executed instruction
system.cpu1.op_class::SimdMultAcc                   0      0.00%     77.73% # Class of executed instruction
system.cpu1.op_class::SimdShift                     0      0.00%     77.73% # Class of executed instruction
system.cpu1.op_class::SimdShiftAcc                  0      0.00%     77.73% # Class of executed instruction
system.cpu1.op_class::SimdDiv                       0      0.00%     77.73% # Class of executed instruction
system.cpu1.op_class::SimdSqrt                      0      0.00%     77.73% # Class of executed instruction
system.cpu1.op_class::SimdFloatAdd                  0      0.00%     77.73% # Class of executed instruction
system.cpu1.op_class::SimdFloatAlu                  0      0.00%     77.73% # Class of executed instruction
system.cpu1.op_class::SimdFloatCmp                  0      0.00%     77.73% # Class of executed instruction
system.cpu1.op_class::SimdFloatCvt                  5      0.01%     77.75% # Class of executed instruction
system.cpu1.op_class::SimdFloatDiv                  0      0.00%     77.75% # Class of executed instruction
system.cpu1.op_class::SimdFloatMisc                 0      0.00%     77.75% # Class of executed instruction
system.cpu1.op_class::SimdFloatMult                 2      0.00%     77.75% # Class of executed instruction
system.cpu1.op_class::SimdFloatMultAcc              0      0.00%     77.75% # Class of executed instruction
system.cpu1.op_class::SimdFloatSqrt                 0      0.00%     77.75% # Class of executed instruction
system.cpu1.op_class::SimdReduceAdd                 0      0.00%     77.75% # Class of executed instruction
system.cpu1.op_class::SimdReduceAlu                 0      0.00%     77.75% # Class of executed instruction
system.cpu1.op_class::SimdReduceCmp                 0      0.00%     77.75% # Class of executed instruction
system.cpu1.op_class::SimdFloatReduceAdd            0      0.00%     77.75% # Class of executed instruction
system.cpu1.op_class::SimdFloatReduceCmp            0      0.00%     77.75% # Class of executed instruction
system.cpu1.op_class::SimdAes                       0      0.00%     77.75% # Class of executed instruction
system.cpu1.op_class::SimdAesMix                    0      0.00%     77.75% # Class of executed instruction
system.cpu1.op_class::SimdSha1Hash                  0      0.00%     77.75% # Class of executed instruction
system.cpu1.op_class::SimdSha1Hash2                 0      0.00%     77.75% # Class of executed instruction
system.cpu1.op_class::SimdSha256Hash                0      0.00%     77.75% # Class of executed instruction
system.cpu1.op_class::SimdSha256Hash2               0      0.00%     77.75% # Class of executed instruction
system.cpu1.op_class::SimdShaSigma2                 0      0.00%     77.75% # Class of executed instruction
system.cpu1.op_class::SimdShaSigma3                 0      0.00%     77.75% # Class of executed instruction
system.cpu1.op_class::SimdPredAlu                   0      0.00%     77.75% # Class of executed instruction
system.cpu1.op_class::MemRead                    4755     11.07%     88.82% # Class of executed instruction
system.cpu1.op_class::MemWrite                   3507      8.16%     96.98% # Class of executed instruction
system.cpu1.op_class::FloatMemRead                231      0.54%     97.51% # Class of executed instruction
system.cpu1.op_class::FloatMemWrite              1068      2.49%    100.00% # Class of executed instruction
system.cpu1.op_class::IprAccess                     0      0.00%    100.00% # Class of executed instruction
system.cpu1.op_class::InstPrefetch                  0      0.00%    100.00% # Class of executed instruction
system.cpu1.op_class::total                     42973                       # Class of executed instruction
system.cpu1.workload.numSyscalls                   35                       # Number of system calls
system.cpu2.Branches                           993347                       # Number of branches fetched
system.cpu2.committedInsts                   25169721                       # Number of instructions committed
system.cpu2.committedOps                     43025563                       # Number of ops (including micro ops) committed
system.cpu2.idle_fraction                    0.687217                       # Percentage of idle cycles
system.cpu2.not_idle_fraction                0.312783                       # Percentage of non-idle cycles
system.cpu2.numCycles                       356969454                       # number of cpu cycles simulated
system.cpu2.numWorkItemsCompleted                   0                       # number of work items this cpu completed
system.cpu2.numWorkItemsStarted                     0                       # number of work items this cpu started
system.cpu2.num_busy_cycles              111653831.380789                       # Number of busy cycles
system.cpu2.num_cc_register_reads             4831738                       # number of times the CC registers were read
system.cpu2.num_cc_register_writes           11977499                       # number of times the CC registers were written
system.cpu2.num_conditional_control_insts       932180                       # number of instructions that are conditional controls
system.cpu2.num_fp_alu_accesses                 31329                       # Number of float alu accesses
system.cpu2.num_fp_insts                        31329                       # number of float instructions
system.cpu2.num_fp_register_reads               39111                       # number of times the floating registers were read
system.cpu2.num_fp_register_writes              26838                       # number of times the floating registers were written
system.cpu2.num_func_calls                       2393                       # number of times a function call or return occured
system.cpu2.num_idle_cycles              245315622.619211                       # Number of idle cycles
system.cpu2.num_int_alu_accesses             43000488                       # Number of integer alu accesses
system.cpu2.num_int_insts                    43000488                       # number of integer instructions
system.cpu2.num_int_register_reads          108152220                       # number of times the integer registers were read
system.cpu2.num_int_register_writes          37839131                       # number of times the integer registers were written
system.cpu2.num_load_insts                   12611885                       # Number of load instructions
system.cpu2.num_mem_refs                     18445651                       # number of memory refs
system.cpu2.num_store_insts                   5833766                       # Number of store instructions
system.cpu2.num_vec_alu_accesses                    0                       # Number of vector alu accesses
system.cpu2.num_vec_insts                           0                       # number of vector instructions
system.cpu2.num_vec_register_reads                  0                       # number of times the vector registers were read
system.cpu2.num_vec_register_writes                 0                       # number of times the vector registers were written
system.cpu2.op_class::No_OpClass                 5615      0.01%      0.01% # Class of executed instruction
system.cpu2.op_class::IntAlu                 22909662     53.25%     53.26% # Class of executed instruction
system.cpu2.op_class::IntMult                 1619937      3.77%     57.02% # Class of executed instruction
system.cpu2.op_class::IntDiv                    25016      0.06%     57.08% # Class of executed instruction
system.cpu2.op_class::FloatAdd                   5888      0.01%     57.10% # Class of executed instruction
system.cpu2.op_class::FloatCmp                      0      0.00%     57.10% # Class of executed instruction
system.cpu2.op_class::FloatCvt                      0      0.00%     57.10% # Class of executed instruction
system.cpu2.op_class::FloatMult                     0      0.00%     57.10% # Class of executed instruction
system.cpu2.op_class::FloatMultAcc                  0      0.00%     57.10% # Class of executed instruction
system.cpu2.op_class::FloatDiv                      0      0.00%     57.10% # Class of executed instruction
system.cpu2.op_class::FloatMisc                     0      0.00%     57.10% # Class of executed instruction
system.cpu2.op_class::FloatSqrt                     0      0.00%     57.10% # Class of executed instruction
system.cpu2.op_class::SimdAdd                       0      0.00%     57.10% # Class of executed instruction
system.cpu2.op_class::SimdAddAcc                    0      0.00%     57.10% # Class of executed instruction
system.cpu2.op_class::SimdAlu                    1328      0.00%     57.10% # Class of executed instruction
system.cpu2.op_class::SimdCmp                       0      0.00%     57.10% # Class of executed instruction
system.cpu2.op_class::SimdCvt                      20      0.00%     57.10% # Class of executed instruction
system.cpu2.op_class::SimdMisc                   1941      0.00%     57.10% # Class of executed instruction
system.cpu2.op_class::SimdMult                      0      0.00%     57.10% # Class of executed instruction
system.cpu2.op_class::SimdMultAcc                   0      0.00%     57.10% # Class of executed instruction
system.cpu2.op_class::SimdShift                     0      0.00%     57.10% # Class of executed instruction
system.cpu2.op_class::SimdShiftAcc                  0      0.00%     57.10% # Class of executed instruction
system.cpu2.op_class::SimdDiv                       0      0.00%     57.10% # Class of executed instruction
system.cpu2.op_class::SimdSqrt                      0      0.00%     57.10% # Class of executed instruction
system.cpu2.op_class::SimdFloatAdd               3611      0.01%     57.11% # Class of executed instruction
system.cpu2.op_class::SimdFloatAlu                  0      0.00%     57.11% # Class of executed instruction
system.cpu2.op_class::SimdFloatCmp                  0      0.00%     57.11% # Class of executed instruction
system.cpu2.op_class::SimdFloatCvt               2324      0.01%     57.12% # Class of executed instruction
system.cpu2.op_class::SimdFloatDiv                362      0.00%     57.12% # Class of executed instruction
system.cpu2.op_class::SimdFloatMisc                 0      0.00%     57.12% # Class of executed instruction
system.cpu2.op_class::SimdFloatMult              4229      0.01%     57.13% # Class of executed instruction
system.cpu2.op_class::SimdFloatMultAcc              0      0.00%     57.13% # Class of executed instruction
system.cpu2.op_class::SimdFloatSqrt                 0      0.00%     57.13% # Class of executed instruction
system.cpu2.op_class::SimdReduceAdd                 0      0.00%     57.13% # Class of executed instruction
system.cpu2.op_class::SimdReduceAlu                 0      0.00%     57.13% # Class of executed instruction
system.cpu2.op_class::SimdReduceCmp                 0      0.00%     57.13% # Class of executed instruction
system.cpu2.op_class::SimdFloatReduceAdd            0      0.00%     57.13% # Class of executed instruction
system.cpu2.op_class::SimdFloatReduceCmp            0      0.00%     57.13% # Class of executed instruction
system.cpu2.op_class::SimdAes                       0      0.00%     57.13% # Class of executed instruction
system.cpu2.op_class::SimdAesMix                    0      0.00%     57.13% # Class of executed instruction
system.cpu2.op_class::SimdSha1Hash                  0      0.00%     57.13% # Class of executed instruction
system.cpu2.op_class::SimdSha1Hash2                 0      0.00%     57.13% # Class of executed instruction
system.cpu2.op_class::SimdSha256Hash                0      0.00%     57.13% # Class of executed instruction
system.cpu2.op_class::SimdSha256Hash2               0      0.00%     57.13% # Class of executed instruction
system.cpu2.op_class::SimdShaSigma2                 0      0.00%     57.13% # Class of executed instruction
system.cpu2.op_class::SimdShaSigma3                 0      0.00%     57.13% # Class of executed instruction
system.cpu2.op_class::SimdPredAlu                   0      0.00%     57.13% # Class of executed instruction
system.cpu2.op_class::MemRead                12604009     29.29%     86.42% # Class of executed instruction
system.cpu2.op_class::MemWrite                5831466     13.55%     99.98% # Class of executed instruction
system.cpu2.op_class::FloatMemRead               7876      0.02%     99.99% # Class of executed instruction
system.cpu2.op_class::FloatMemWrite              2300      0.01%    100.00% # Class of executed instruction
system.cpu2.op_class::IprAccess                     0      0.00%    100.00% # Class of executed instruction
system.cpu2.op_class::InstPrefetch                  0      0.00%    100.00% # Class of executed instruction
system.cpu2.op_class::total                  43025584                       # Class of executed instruction
system.cpu3.Branches                          1717160                       # Number of branches fetched
system.cpu3.committedInsts                   28891612                       # Number of instructions committed
system.cpu3.committedOps                     49898178                       # Number of ops (including micro ops) committed
system.cpu3.idle_fraction                    0.676046                       # Percentage of idle cycles
system.cpu3.not_idle_fraction                0.323954                       # Percentage of non-idle cycles
system.cpu3.numCycles                       359182363                       # number of cpu cycles simulated
system.cpu3.numWorkItemsCompleted                   0                       # number of work items this cpu completed
system.cpu3.numWorkItemsStarted                     0                       # number of work items this cpu started
system.cpu3.num_busy_cycles              116358640.155365                       # Number of busy cycles
system.cpu3.num_cc_register_reads             7690283                       # number of times the CC registers were read
system.cpu3.num_cc_register_writes           14079425                       # number of times the CC registers were written
system.cpu3.num_conditional_control_insts      1333456                       # number of instructions that are conditional controls
system.cpu3.num_fp_alu_accesses                 34342                       # Number of float alu accesses
system.cpu3.num_fp_insts                        34342                       # number of float instructions
system.cpu3.num_fp_register_reads               43425                       # number of times the floating registers were read
system.cpu3.num_fp_register_writes              29257                       # number of times the floating registers were written
system.cpu3.num_func_calls                     195535                       # number of times a function call or return occured
system.cpu3.num_idle_cycles              242823722.844635                       # Number of idle cycles
system.cpu3.num_int_alu_accesses             49848035                       # Number of integer alu accesses
system.cpu3.num_int_insts                    49848035                       # number of integer instructions
system.cpu3.num_int_register_reads          122019478                       # number of times the integer registers were read
system.cpu3.num_int_register_writes          43553733                       # number of times the integer registers were written
system.cpu3.num_load_insts                   13423076                       # Number of load instructions
system.cpu3.num_mem_refs                     19701587                       # number of memory refs
system.cpu3.num_store_insts                   6278511                       # Number of store instructions
system.cpu3.num_vec_alu_accesses                    0                       # Number of vector alu accesses
system.cpu3.num_vec_insts                           0                       # number of vector instructions
system.cpu3.num_vec_register_reads                  0                       # number of times the vector registers were read
system.cpu3.num_vec_register_writes                 0                       # number of times the vector registers were written
system.cpu3.op_class::No_OpClass                28755      0.06%      0.06% # Class of executed instruction
system.cpu3.op_class::IntAlu                 28465711     57.05%     57.11% # Class of executed instruction
system.cpu3.op_class::IntMult                 1654841      3.32%     60.42% # Class of executed instruction
system.cpu3.op_class::IntDiv                    25548      0.05%     60.47% # Class of executed instruction
system.cpu3.op_class::FloatAdd                   6182      0.01%     60.49% # Class of executed instruction
system.cpu3.op_class::FloatCmp                      0      0.00%     60.49% # Class of executed instruction
system.cpu3.op_class::FloatCvt                      0      0.00%     60.49% # Class of executed instruction
system.cpu3.op_class::FloatMult                     0      0.00%     60.49% # Class of executed instruction
system.cpu3.op_class::FloatMultAcc                  0      0.00%     60.49% # Class of executed instruction
system.cpu3.op_class::FloatDiv                      0      0.00%     60.49% # Class of executed instruction
system.cpu3.op_class::FloatMisc                     0      0.00%     60.49% # Class of executed instruction
system.cpu3.op_class::FloatSqrt                     0      0.00%     60.49% # Class of executed instruction
system.cpu3.op_class::SimdAdd                       0      0.00%     60.49% # Class of executed instruction
system.cpu3.op_class::SimdAddAcc                    0      0.00%     60.49% # Class of executed instruction
system.cpu3.op_class::SimdAlu                    2118      0.00%     60.49% # Class of executed instruction
system.cpu3.op_class::SimdCmp                       0      0.00%     60.49% # Class of executed instruction
system.cpu3.op_class::SimdCvt                     210      0.00%     60.49% # Class of executed instruction
system.cpu3.op_class::SimdMisc                   2341      0.00%     60.49% # Class of executed instruction
system.cpu3.op_class::SimdMult                      0      0.00%     60.49% # Class of executed instruction
system.cpu3.op_class::SimdMultAcc                   0      0.00%     60.49% # Class of executed instruction
system.cpu3.op_class::SimdShift                     0      0.00%     60.49% # Class of executed instruction
system.cpu3.op_class::SimdShiftAcc                  0      0.00%     60.49% # Class of executed instruction
system.cpu3.op_class::SimdDiv                       0      0.00%     60.49% # Class of executed instruction
system.cpu3.op_class::SimdSqrt                      0      0.00%     60.49% # Class of executed instruction
system.cpu3.op_class::SimdFloatAdd               3752      0.01%     60.50% # Class of executed instruction
system.cpu3.op_class::SimdFloatAlu                  0      0.00%     60.50% # Class of executed instruction
system.cpu3.op_class::SimdFloatCmp                  0      0.00%     60.50% # Class of executed instruction
system.cpu3.op_class::SimdFloatCvt               2399      0.00%     60.51% # Class of executed instruction
system.cpu3.op_class::SimdFloatDiv                377      0.00%     60.51% # Class of executed instruction
system.cpu3.op_class::SimdFloatMisc                 0      0.00%     60.51% # Class of executed instruction
system.cpu3.op_class::SimdFloatMult              4384      0.01%     60.52% # Class of executed instruction
system.cpu3.op_class::SimdFloatMultAcc              0      0.00%     60.52% # Class of executed instruction
system.cpu3.op_class::SimdFloatSqrt                 0      0.00%     60.52% # Class of executed instruction
system.cpu3.op_class::SimdReduceAdd                 0      0.00%     60.52% # Class of executed instruction
system.cpu3.op_class::SimdReduceAlu                 0      0.00%     60.52% # Class of executed instruction
system.cpu3.op_class::SimdReduceCmp                 0      0.00%     60.52% # Class of executed instruction
system.cpu3.op_class::SimdFloatReduceAdd            0      0.00%     60.52% # Class of executed instruction
system.cpu3.op_class::SimdFloatReduceCmp            0      0.00%     60.52% # Class of executed instruction
system.cpu3.op_class::SimdAes                       0      0.00%     60.52% # Class of executed instruction
system.cpu3.op_class::SimdAesMix                    0      0.00%     60.52% # Class of executed instruction
system.cpu3.op_class::SimdSha1Hash                  0      0.00%     60.52% # Class of executed instruction
system.cpu3.op_class::SimdSha1Hash2                 0      0.00%     60.52% # Class of executed instruction
system.cpu3.op_class::SimdSha256Hash                0      0.00%     60.52% # Class of executed instruction
system.cpu3.op_class::SimdSha256Hash2               0      0.00%     60.52% # Class of executed instruction
system.cpu3.op_class::SimdShaSigma2                 0      0.00%     60.52% # Class of executed instruction
system.cpu3.op_class::SimdShaSigma3                 0      0.00%     60.52% # Class of executed instruction
system.cpu3.op_class::SimdPredAlu                   0      0.00%     60.52% # Class of executed instruction
system.cpu3.op_class::MemRead                13414745     26.88%     87.40% # Class of executed instruction
system.cpu3.op_class::MemWrite                6275896     12.58%     99.98% # Class of executed instruction
system.cpu3.op_class::FloatMemRead               8331      0.02%     99.99% # Class of executed instruction
system.cpu3.op_class::FloatMemWrite              2615      0.01%    100.00% # Class of executed instruction
system.cpu3.op_class::IprAccess                     0      0.00%    100.00% # Class of executed instruction
system.cpu3.op_class::InstPrefetch                  0      0.00%    100.00% # Class of executed instruction
system.cpu3.op_class::total                  49898205                       # Class of executed instruction
system.noc_network.Directory.incomplete_times_seqr       451338                      
system.noc_network.Directory.miss_latency_hist_seqr.first_response_to_completion::bucket_size            8                      
system.noc_network.Directory.miss_latency_hist_seqr.first_response_to_completion::max_bucket           79                      
system.noc_network.Directory.miss_latency_hist_seqr.first_response_to_completion::samples            2                      
system.noc_network.Directory.miss_latency_hist_seqr.first_response_to_completion::mean           72                      
system.noc_network.Directory.miss_latency_hist_seqr.first_response_to_completion::gmean    71.888803                      
system.noc_network.Directory.miss_latency_hist_seqr.first_response_to_completion::stdev     5.656854                      
system.noc_network.Directory.miss_latency_hist_seqr.first_response_to_completion |           0      0.00%      0.00% |           0      0.00%      0.00% |           0      0.00%      0.00% |           0      0.00%      0.00% |           0      0.00%      0.00% |           0      0.00%      0.00% |           0      0.00%      0.00% |           0      0.00%      0.00% |           1     50.00%     50.00% |           1     50.00%    100.00%
system.noc_network.Directory.miss_latency_hist_seqr.first_response_to_completion::total            2                      
system.noc_network.Directory.miss_latency_hist_seqr.forward_to_first_response::bucket_size            1                      
system.noc_network.Directory.miss_latency_hist_seqr.forward_to_first_response::max_bucket            9                      
system.noc_network.Directory.miss_latency_hist_seqr.forward_to_first_response::samples            2                      
system.noc_network.Directory.miss_latency_hist_seqr.forward_to_first_response |           2    100.00%    100.00% |           0      0.00%    100.00% |           0      0.00%    100.00% |           0      0.00%    100.00% |           0      0.00%    100.00% |           0      0.00%    100.00% |           0      0.00%    100.00% |           0      0.00%    100.00% |           0      0.00%    100.00% |           0      0.00%    100.00%
system.noc_network.Directory.miss_latency_hist_seqr.forward_to_first_response::total            2                      
system.noc_network.Directory.miss_latency_hist_seqr.initial_to_forward::bucket_size            1                      
system.noc_network.Directory.miss_latency_hist_seqr.initial_to_forward::max_bucket            9                      
system.noc_network.Directory.miss_latency_hist_seqr.initial_to_forward::samples            2                      
system.noc_network.Directory.miss_latency_hist_seqr.initial_to_forward |           2    100.00%    100.00% |           0      0.00%    100.00% |           0      0.00%    100.00% |           0      0.00%    100.00% |           0      0.00%    100.00% |           0      0.00%    100.00% |           0      0.00%    100.00% |           0      0.00%    100.00% |           0      0.00%    100.00% |           0      0.00%    100.00%
system.noc_network.Directory.miss_latency_hist_seqr.initial_to_forward::total            2                      
system.noc_network.Directory.miss_latency_hist_seqr.issue_to_initial_request::bucket_size            1                      
system.noc_network.Directory.miss_latency_hist_seqr.issue_to_initial_request::max_bucket            9                      
system.noc_network.Directory.miss_latency_hist_seqr.issue_to_initial_request::samples            2                      
system.noc_network.Directory.miss_latency_hist_seqr.issue_to_initial_request |           2    100.00%    100.00% |           0      0.00%    100.00% |           0      0.00%    100.00% |           0      0.00%    100.00% |           0      0.00%    100.00% |           0      0.00%    100.00% |           0      0.00%    100.00% |           0      0.00%    100.00% |           0      0.00%    100.00% |           0      0.00%    100.00%
system.noc_network.Directory.miss_latency_hist_seqr.issue_to_initial_request::total            2                      
system.noc_network.Directory.miss_mach_latency_hist_seqr::bucket_size            8                      
system.noc_network.Directory.miss_mach_latency_hist_seqr::max_bucket           79                      
system.noc_network.Directory.miss_mach_latency_hist_seqr::samples       451340                      
system.noc_network.Directory.miss_mach_latency_hist_seqr::mean     0.000319                      
system.noc_network.Directory.miss_mach_latency_hist_seqr::stdev     0.151797                      
system.noc_network.Directory.miss_mach_latency_hist_seqr |      451338    100.00%    100.00% |           0      0.00%    100.00% |           0      0.00%    100.00% |           0      0.00%    100.00% |           0      0.00%    100.00% |           0      0.00%    100.00% |           0      0.00%    100.00% |           0      0.00%    100.00% |           1      0.00%    100.00% |           1      0.00%    100.00%
system.noc_network.Directory.miss_mach_latency_hist_seqr::total       451340                      
system.noc_network.Directory_Controller.GETX |     2285660     24.22%     24.22% |     7150762     75.78%    100.00%
system.noc_network.Directory_Controller.GETX::total      9436422                      
system.noc_network.Directory_Controller.I.GETX |      387328     85.82%     85.82% |       64012     14.18%    100.00%
system.noc_network.Directory_Controller.I.GETX::total       451340                      
system.noc_network.Directory_Controller.IM.Memory_Data |      387328     85.82%     85.82% |       64012     14.18%    100.00%
system.noc_network.Directory_Controller.IM.Memory_Data::total       451340                      
system.noc_network.Directory_Controller.M.GETX |     1898332     21.13%     21.13% |     7086750     78.87%    100.00%
system.noc_network.Directory_Controller.M.GETX::total      8985082                      
system.noc_network.Directory_Controller.M.PUTX |      387089     85.92%     85.92% |       63429     14.08%    100.00%
system.noc_network.Directory_Controller.M.PUTX::total       450518                      
system.noc_network.Directory_Controller.MI.Memory_Ack |      387089     85.92%     85.92% |       63429     14.08%    100.00%
system.noc_network.Directory_Controller.MI.Memory_Ack::total       450518                      
system.noc_network.Directory_Controller.Memory_Ack |      387089     85.92%     85.92% |       63429     14.08%    100.00%
system.noc_network.Directory_Controller.Memory_Ack::total       450518                      
system.noc_network.Directory_Controller.Memory_Data |      387328     85.82%     85.82% |       64012     14.18%    100.00%
system.noc_network.Directory_Controller.Memory_Data::total       451340                      
system.noc_network.Directory_Controller.PUTX |      387089     85.92%     85.92% |       63429     14.08%    100.00%
system.noc_network.Directory_Controller.PUTX::total       450518                      
system.noc_network.IFETCH.Directory.miss_type_mach_latency_hist_seqr::bucket_size            8                      
system.noc_network.IFETCH.Directory.miss_type_mach_latency_hist_seqr::max_bucket           79                      
system.noc_network.IFETCH.Directory.miss_type_mach_latency_hist_seqr::samples         3258                      
system.noc_network.IFETCH.Directory.miss_type_mach_latency_hist_seqr::mean     0.044199                      
system.noc_network.IFETCH.Directory.miss_type_mach_latency_hist_seqr::stdev     1.786384                      
system.noc_network.IFETCH.Directory.miss_type_mach_latency_hist_seqr |        3256     99.94%     99.94% |           0      0.00%     99.94% |           0      0.00%     99.94% |           0      0.00%     99.94% |           0      0.00%     99.94% |           0      0.00%     99.94% |           0      0.00%     99.94% |           0      0.00%     99.94% |           1      0.03%     99.97% |           1      0.03%    100.00%
system.noc_network.IFETCH.Directory.miss_type_mach_latency_hist_seqr::total         3258                      
system.noc_network.IFETCH.L1Cache.miss_type_mach_latency_hist_seqr::bucket_size            1                      
system.noc_network.IFETCH.L1Cache.miss_type_mach_latency_hist_seqr::max_bucket            9                      
system.noc_network.IFETCH.L1Cache.miss_type_mach_latency_hist_seqr::samples      7077880                      
system.noc_network.IFETCH.L1Cache.miss_type_mach_latency_hist_seqr |     7077880    100.00%    100.00% |           0      0.00%    100.00% |           0      0.00%    100.00% |           0      0.00%    100.00% |           0      0.00%    100.00% |           0      0.00%    100.00% |           0      0.00%    100.00% |           0      0.00%    100.00% |           0      0.00%    100.00% |           0      0.00%    100.00%
system.noc_network.IFETCH.L1Cache.miss_type_mach_latency_hist_seqr::total      7077880                      
system.noc_network.IFETCH.hit_latency_hist_seqr::bucket_size            1                      
system.noc_network.IFETCH.hit_latency_hist_seqr::max_bucket            9                      
system.noc_network.IFETCH.hit_latency_hist_seqr::samples    463402775                      
system.noc_network.IFETCH.hit_latency_hist_seqr |   463402775    100.00%    100.00% |           0      0.00%    100.00% |           0      0.00%    100.00% |           0      0.00%    100.00% |           0      0.00%    100.00% |           0      0.00%    100.00% |           0      0.00%    100.00% |           0      0.00%    100.00% |           0      0.00%    100.00% |           0      0.00%    100.00%
system.noc_network.IFETCH.hit_latency_hist_seqr::total    463402775                      
system.noc_network.IFETCH.latency_hist_seqr::bucket_size            8                      
system.noc_network.IFETCH.latency_hist_seqr::max_bucket           79                      
system.noc_network.IFETCH.latency_hist_seqr::samples    470483913                      
system.noc_network.IFETCH.latency_hist_seqr::mean     0.000000                      
system.noc_network.IFETCH.latency_hist_seqr::stdev     0.004702                      
system.noc_network.IFETCH.latency_hist_seqr |   470483911    100.00%    100.00% |           0      0.00%    100.00% |           0      0.00%    100.00% |           0      0.00%    100.00% |           0      0.00%    100.00% |           0      0.00%    100.00% |           0      0.00%    100.00% |           0      0.00%    100.00% |           1      0.00%    100.00% |           1      0.00%    100.00%
system.noc_network.IFETCH.latency_hist_seqr::total    470483913                      
system.noc_network.IFETCH.miss_latency_hist_seqr::bucket_size            8                      
system.noc_network.IFETCH.miss_latency_hist_seqr::max_bucket           79                      
system.noc_network.IFETCH.miss_latency_hist_seqr::samples      7081138                      
system.noc_network.IFETCH.miss_latency_hist_seqr::mean     0.000020                      
system.noc_network.IFETCH.miss_latency_hist_seqr::stdev     0.038323                      
system.noc_network.IFETCH.miss_latency_hist_seqr |     7081136    100.00%    100.00% |           0      0.00%    100.00% |           0      0.00%    100.00% |           0      0.00%    100.00% |           0      0.00%    100.00% |           0      0.00%    100.00% |           0      0.00%    100.00% |           0      0.00%    100.00% |           1      0.00%    100.00% |           1      0.00%    100.00%
system.noc_network.IFETCH.miss_latency_hist_seqr::total      7081138                      
system.noc_network.L1Cache.incomplete_times_seqr      8985082                      
system.noc_network.L1Cache.miss_mach_latency_hist_seqr::bucket_size            1                      
system.noc_network.L1Cache.miss_mach_latency_hist_seqr::max_bucket            9                      
system.noc_network.L1Cache.miss_mach_latency_hist_seqr::samples      8985082                      
system.noc_network.L1Cache.miss_mach_latency_hist_seqr |     8985082    100.00%    100.00% |           0      0.00%    100.00% |           0      0.00%    100.00% |           0      0.00%    100.00% |           0      0.00%    100.00% |           0      0.00%    100.00% |           0      0.00%    100.00% |           0      0.00%    100.00% |           0      0.00%    100.00% |           0      0.00%    100.00%
system.noc_network.L1Cache.miss_mach_latency_hist_seqr::total      8985082                      
system.noc_network.L1Cache_Controller.Data |      440394      4.67%      4.67% |        1553      0.02%      4.68% |     4493111     47.61%     52.30% |     4501364     47.70%    100.00%
system.noc_network.L1Cache_Controller.Data::total      9436422                      
system.noc_network.L1Cache_Controller.Fwd_GETX |           0      0.00%      0.00% |         189      0.00%      0.00% |     4492513     50.00%     50.00% |     4492380     50.00%    100.00%
system.noc_network.L1Cache_Controller.Fwd_GETX::total      8985082                      
system.noc_network.L1Cache_Controller.I.Ifetch |        1763      0.02%      0.02% |         972      0.01%      0.04% |     3539122     49.98%     50.02% |     3539281     49.98%    100.00%
system.noc_network.L1Cache_Controller.I.Ifetch::total      7081138                      
system.noc_network.L1Cache_Controller.I.Load |      409539     17.62%     17.62% |         311      0.01%     17.63% |      953745     41.02%     58.65% |      961300     41.35%    100.00%
system.noc_network.L1Cache_Controller.I.Load::total      2324895                      
system.noc_network.L1Cache_Controller.I.Replacement |           0      0.00%      0.00% |          48      6.71%      6.71% |         357     49.93%     56.64% |         310     43.36%    100.00%
system.noc_network.L1Cache_Controller.I.Replacement::total          715                      
system.noc_network.L1Cache_Controller.I.Store |       29092     95.73%     95.73% |         270      0.89%     96.62% |         244      0.80%     97.42% |         783      2.58%    100.00%
system.noc_network.L1Cache_Controller.I.Store::total        30389                      
system.noc_network.L1Cache_Controller.IM.Data |       29092     95.73%     95.73% |         270      0.89%     96.62% |         244      0.80%     97.42% |         783      2.58%    100.00%
system.noc_network.L1Cache_Controller.IM.Data::total        30389                      
system.noc_network.L1Cache_Controller.IS.Data |      411302      4.37%      4.37% |        1283      0.01%      4.39% |     4492867     47.77%     52.15% |     4500581     47.85%    100.00%
system.noc_network.L1Cache_Controller.IS.Data::total      9406033                      
system.noc_network.L1Cache_Controller.Ifetch |   398905725     84.79%     84.79% |       29984      0.01%     84.79% |    33485411      7.12%     91.91% |    38062793      8.09%    100.00%
system.noc_network.L1Cache_Controller.Ifetch::total    470483913                      
system.noc_network.L1Cache_Controller.Load |    94425976     81.85%     81.85% |        4824      0.00%     81.85% |    10089198      8.75%     90.60% |    10845434      9.40%    100.00%
system.noc_network.L1Cache_Controller.Load::total    115365432                      
system.noc_network.L1Cache_Controller.M.Fwd_GETX |           0      0.00%      0.00% |         189      0.00%      0.00% |     4492513     50.00%     50.00% |     4492380     50.00%    100.00%
system.noc_network.L1Cache_Controller.M.Fwd_GETX::total      8985082                      
system.noc_network.L1Cache_Controller.M.Ifetch |   398903962     86.08%     86.08% |       29012      0.01%     86.09% |    29946289      6.46%     92.55% |    34523512      7.45%    100.00%
system.noc_network.L1Cache_Controller.M.Ifetch::total    463402775                      
system.noc_network.L1Cache_Controller.M.Load |    94016437     83.17%     83.17% |        4513      0.00%     83.17% |     9135453      8.08%     91.26% |     9884134      8.74%    100.00%
system.noc_network.L1Cache_Controller.M.Load::total    113040537                      
system.noc_network.L1Cache_Controller.M.Replacement |      440138     97.70%     97.70% |        1113      0.25%     97.94% |         513      0.11%     98.06% |        8754      1.94%    100.00%
system.noc_network.L1Cache_Controller.M.Replacement::total       450518                      
system.noc_network.L1Cache_Controller.M.Store |    17494995     50.40%     50.40% |        4465      0.01%     50.41% |     8356473     24.07%     74.49% |     8855655     25.51%    100.00%
system.noc_network.L1Cache_Controller.M.Store::total     34711588                      
system.noc_network.L1Cache_Controller.MI.Writeback_Ack |      440138     97.70%     97.70% |        1113      0.25%     97.94% |         513      0.11%     98.06% |        8754      1.94%    100.00%
system.noc_network.L1Cache_Controller.MI.Writeback_Ack::total       450518                      
system.noc_network.L1Cache_Controller.Replacement |      440138     97.54%     97.54% |        1161      0.26%     97.80% |         870      0.19%     97.99% |        9064      2.01%    100.00%
system.noc_network.L1Cache_Controller.Replacement::total       451233                      
system.noc_network.L1Cache_Controller.Store |    17524087     50.44%     50.44% |        4735      0.01%     50.45% |     8356717     24.05%     74.51% |     8856438     25.49%    100.00%
system.noc_network.L1Cache_Controller.Store::total     34741977                      
system.noc_network.L1Cache_Controller.Writeback_Ack |      440138     97.70%     97.70% |        1113      0.25%     97.94% |         513      0.11%     98.06% |        8754      1.94%    100.00%
system.noc_network.L1Cache_Controller.Writeback_Ack::total       450518                      
system.noc_network.LD.Directory.miss_type_mach_latency_hist_seqr::bucket_size            1                      
system.noc_network.LD.Directory.miss_type_mach_latency_hist_seqr::max_bucket            9                      
system.noc_network.LD.Directory.miss_type_mach_latency_hist_seqr::samples       417869                      
system.noc_network.LD.Directory.miss_type_mach_latency_hist_seqr |      417869    100.00%    100.00% |           0      0.00%    100.00% |           0      0.00%    100.00% |           0      0.00%    100.00% |           0      0.00%    100.00% |           0      0.00%    100.00% |           0      0.00%    100.00% |           0      0.00%    100.00% |           0      0.00%    100.00% |           0      0.00%    100.00%
system.noc_network.LD.Directory.miss_type_mach_latency_hist_seqr::total       417869                      
system.noc_network.LD.L1Cache.miss_type_mach_latency_hist_seqr::bucket_size            1                      
system.noc_network.LD.L1Cache.miss_type_mach_latency_hist_seqr::max_bucket            9                      
system.noc_network.LD.L1Cache.miss_type_mach_latency_hist_seqr::samples      1907026                      
system.noc_network.LD.L1Cache.miss_type_mach_latency_hist_seqr |     1907026    100.00%    100.00% |           0      0.00%    100.00% |           0      0.00%    100.00% |           0      0.00%    100.00% |           0      0.00%    100.00% |           0      0.00%    100.00% |           0      0.00%    100.00% |           0      0.00%    100.00% |           0      0.00%    100.00% |           0      0.00%    100.00%
system.noc_network.LD.L1Cache.miss_type_mach_latency_hist_seqr::total      1907026                      
system.noc_network.LD.hit_latency_hist_seqr::bucket_size            1                      
system.noc_network.LD.hit_latency_hist_seqr::max_bucket            9                      
system.noc_network.LD.hit_latency_hist_seqr::samples    113040537                      
system.noc_network.LD.hit_latency_hist_seqr |   113040537    100.00%    100.00% |           0      0.00%    100.00% |           0      0.00%    100.00% |           0      0.00%    100.00% |           0      0.00%    100.00% |           0      0.00%    100.00% |           0      0.00%    100.00% |           0      0.00%    100.00% |           0      0.00%    100.00% |           0      0.00%    100.00%
system.noc_network.LD.hit_latency_hist_seqr::total    113040537                      
system.noc_network.LD.latency_hist_seqr::bucket_size            1                      
system.noc_network.LD.latency_hist_seqr::max_bucket            9                      
system.noc_network.LD.latency_hist_seqr::samples    115365432                      
system.noc_network.LD.latency_hist_seqr  |   115365432    100.00%    100.00% |           0      0.00%    100.00% |           0      0.00%    100.00% |           0      0.00%    100.00% |           0      0.00%    100.00% |           0      0.00%    100.00% |           0      0.00%    100.00% |           0      0.00%    100.00% |           0      0.00%    100.00% |           0      0.00%    100.00%
system.noc_network.LD.latency_hist_seqr::total    115365432                      
system.noc_network.LD.miss_latency_hist_seqr::bucket_size            1                      
system.noc_network.LD.miss_latency_hist_seqr::max_bucket            9                      
system.noc_network.LD.miss_latency_hist_seqr::samples      2324895                      
system.noc_network.LD.miss_latency_hist_seqr |     2324895    100.00%    100.00% |           0      0.00%    100.00% |           0      0.00%    100.00% |           0      0.00%    100.00% |           0      0.00%    100.00% |           0      0.00%    100.00% |           0      0.00%    100.00% |           0      0.00%    100.00% |           0      0.00%    100.00% |           0      0.00%    100.00%
system.noc_network.LD.miss_latency_hist_seqr::total      2324895                      
system.noc_network.Locked_RMW_Read.Directory.miss_type_mach_latency_hist_seqr::bucket_size            1                      
system.noc_network.Locked_RMW_Read.Directory.miss_type_mach_latency_hist_seqr::max_bucket            9                      
system.noc_network.Locked_RMW_Read.Directory.miss_type_mach_latency_hist_seqr::samples           12                      
system.noc_network.Locked_RMW_Read.Directory.miss_type_mach_latency_hist_seqr |          12    100.00%    100.00% |           0      0.00%    100.00% |           0      0.00%    100.00% |           0      0.00%    100.00% |           0      0.00%    100.00% |           0      0.00%    100.00% |           0      0.00%    100.00% |           0      0.00%    100.00% |           0      0.00%    100.00% |           0      0.00%    100.00%
system.noc_network.Locked_RMW_Read.Directory.miss_type_mach_latency_hist_seqr::total           12                      
system.noc_network.Locked_RMW_Read.L1Cache.miss_type_mach_latency_hist_seqr::bucket_size            1                      
system.noc_network.Locked_RMW_Read.L1Cache.miss_type_mach_latency_hist_seqr::max_bucket            9                      
system.noc_network.Locked_RMW_Read.L1Cache.miss_type_mach_latency_hist_seqr::samples           29                      
system.noc_network.Locked_RMW_Read.L1Cache.miss_type_mach_latency_hist_seqr |          29    100.00%    100.00% |           0      0.00%    100.00% |           0      0.00%    100.00% |           0      0.00%    100.00% |           0      0.00%    100.00% |           0      0.00%    100.00% |           0      0.00%    100.00% |           0      0.00%    100.00% |           0      0.00%    100.00% |           0      0.00%    100.00%
system.noc_network.Locked_RMW_Read.L1Cache.miss_type_mach_latency_hist_seqr::total           29                      
system.noc_network.Locked_RMW_Read.hit_latency_hist_seqr::bucket_size            1                      
system.noc_network.Locked_RMW_Read.hit_latency_hist_seqr::max_bucket            9                      
system.noc_network.Locked_RMW_Read.hit_latency_hist_seqr::samples          247                      
system.noc_network.Locked_RMW_Read.hit_latency_hist_seqr |         247    100.00%    100.00% |           0      0.00%    100.00% |           0      0.00%    100.00% |           0      0.00%    100.00% |           0      0.00%    100.00% |           0      0.00%    100.00% |           0      0.00%    100.00% |           0      0.00%    100.00% |           0      0.00%    100.00% |           0      0.00%    100.00%
system.noc_network.Locked_RMW_Read.hit_latency_hist_seqr::total          247                      
system.noc_network.Locked_RMW_Read.latency_hist_seqr::bucket_size            1                      
system.noc_network.Locked_RMW_Read.latency_hist_seqr::max_bucket            9                      
system.noc_network.Locked_RMW_Read.latency_hist_seqr::samples          288                      
system.noc_network.Locked_RMW_Read.latency_hist_seqr |         288    100.00%    100.00% |           0      0.00%    100.00% |           0      0.00%    100.00% |           0      0.00%    100.00% |           0      0.00%    100.00% |           0      0.00%    100.00% |           0      0.00%    100.00% |           0      0.00%    100.00% |           0      0.00%    100.00% |           0      0.00%    100.00%
system.noc_network.Locked_RMW_Read.latency_hist_seqr::total          288                      
system.noc_network.Locked_RMW_Read.miss_latency_hist_seqr::bucket_size            1                      
system.noc_network.Locked_RMW_Read.miss_latency_hist_seqr::max_bucket            9                      
system.noc_network.Locked_RMW_Read.miss_latency_hist_seqr::samples           41                      
system.noc_network.Locked_RMW_Read.miss_latency_hist_seqr |          41    100.00%    100.00% |           0      0.00%    100.00% |           0      0.00%    100.00% |           0      0.00%    100.00% |           0      0.00%    100.00% |           0      0.00%    100.00% |           0      0.00%    100.00% |           0      0.00%    100.00% |           0      0.00%    100.00% |           0      0.00%    100.00%
system.noc_network.Locked_RMW_Read.miss_latency_hist_seqr::total           41                      
system.noc_network.Locked_RMW_Write.hit_latency_hist_seqr::bucket_size            1                      
system.noc_network.Locked_RMW_Write.hit_latency_hist_seqr::max_bucket            9                      
system.noc_network.Locked_RMW_Write.hit_latency_hist_seqr::samples          288                      
system.noc_network.Locked_RMW_Write.hit_latency_hist_seqr |         288    100.00%    100.00% |           0      0.00%    100.00% |           0      0.00%    100.00% |           0      0.00%    100.00% |           0      0.00%    100.00% |           0      0.00%    100.00% |           0      0.00%    100.00% |           0      0.00%    100.00% |           0      0.00%    100.00% |           0      0.00%    100.00%
system.noc_network.Locked_RMW_Write.hit_latency_hist_seqr::total          288                      
system.noc_network.Locked_RMW_Write.latency_hist_seqr::bucket_size            1                      
system.noc_network.Locked_RMW_Write.latency_hist_seqr::max_bucket            9                      
system.noc_network.Locked_RMW_Write.latency_hist_seqr::samples          288                      
system.noc_network.Locked_RMW_Write.latency_hist_seqr |         288    100.00%    100.00% |           0      0.00%    100.00% |           0      0.00%    100.00% |           0      0.00%    100.00% |           0      0.00%    100.00% |           0      0.00%    100.00% |           0      0.00%    100.00% |           0      0.00%    100.00% |           0      0.00%    100.00% |           0      0.00%    100.00%
system.noc_network.Locked_RMW_Write.latency_hist_seqr::total          288                      
system.noc_network.RMW_Read.Directory.miss_type_mach_latency_hist_seqr::bucket_size            1                      
system.noc_network.RMW_Read.Directory.miss_type_mach_latency_hist_seqr::max_bucket            9                      
system.noc_network.RMW_Read.Directory.miss_type_mach_latency_hist_seqr::samples          110                      
system.noc_network.RMW_Read.Directory.miss_type_mach_latency_hist_seqr |         110    100.00%    100.00% |           0      0.00%    100.00% |           0      0.00%    100.00% |           0      0.00%    100.00% |           0      0.00%    100.00% |           0      0.00%    100.00% |           0      0.00%    100.00% |           0      0.00%    100.00% |           0      0.00%    100.00% |           0      0.00%    100.00%
system.noc_network.RMW_Read.Directory.miss_type_mach_latency_hist_seqr::total          110                      
system.noc_network.RMW_Read.hit_latency_hist_seqr::bucket_size            1                      
system.noc_network.RMW_Read.hit_latency_hist_seqr::max_bucket            9                      
system.noc_network.RMW_Read.hit_latency_hist_seqr::samples      5100658                      
system.noc_network.RMW_Read.hit_latency_hist_seqr |     5100658    100.00%    100.00% |           0      0.00%    100.00% |           0      0.00%    100.00% |           0      0.00%    100.00% |           0      0.00%    100.00% |           0      0.00%    100.00% |           0      0.00%    100.00% |           0      0.00%    100.00% |           0      0.00%    100.00% |           0      0.00%    100.00%
system.noc_network.RMW_Read.hit_latency_hist_seqr::total      5100658                      
system.noc_network.RMW_Read.latency_hist_seqr::bucket_size            1                      
system.noc_network.RMW_Read.latency_hist_seqr::max_bucket            9                      
system.noc_network.RMW_Read.latency_hist_seqr::samples      5100768                      
system.noc_network.RMW_Read.latency_hist_seqr |     5100768    100.00%    100.00% |           0      0.00%    100.00% |           0      0.00%    100.00% |           0      0.00%    100.00% |           0      0.00%    100.00% |           0      0.00%    100.00% |           0      0.00%    100.00% |           0      0.00%    100.00% |           0      0.00%    100.00% |           0      0.00%    100.00%
system.noc_network.RMW_Read.latency_hist_seqr::total      5100768                      
system.noc_network.RMW_Read.miss_latency_hist_seqr::bucket_size            1                      
system.noc_network.RMW_Read.miss_latency_hist_seqr::max_bucket            9                      
system.noc_network.RMW_Read.miss_latency_hist_seqr::samples          110                      
system.noc_network.RMW_Read.miss_latency_hist_seqr |         110    100.00%    100.00% |           0      0.00%    100.00% |           0      0.00%    100.00% |           0      0.00%    100.00% |           0      0.00%    100.00% |           0      0.00%    100.00% |           0      0.00%    100.00% |           0      0.00%    100.00% |           0      0.00%    100.00% |           0      0.00%    100.00%
system.noc_network.RMW_Read.miss_latency_hist_seqr::total          110                      
system.noc_network.ST.Directory.miss_type_mach_latency_hist_seqr::bucket_size            1                      
system.noc_network.ST.Directory.miss_type_mach_latency_hist_seqr::max_bucket            9                      
system.noc_network.ST.Directory.miss_type_mach_latency_hist_seqr::samples        30091                      
system.noc_network.ST.Directory.miss_type_mach_latency_hist_seqr |       30091    100.00%    100.00% |           0      0.00%    100.00% |           0      0.00%    100.00% |           0      0.00%    100.00% |           0      0.00%    100.00% |           0      0.00%    100.00% |           0      0.00%    100.00% |           0      0.00%    100.00% |           0      0.00%    100.00% |           0      0.00%    100.00%
system.noc_network.ST.Directory.miss_type_mach_latency_hist_seqr::total        30091                      
system.noc_network.ST.L1Cache.miss_type_mach_latency_hist_seqr::bucket_size            1                      
system.noc_network.ST.L1Cache.miss_type_mach_latency_hist_seqr::max_bucket            9                      
system.noc_network.ST.L1Cache.miss_type_mach_latency_hist_seqr::samples          147                      
system.noc_network.ST.L1Cache.miss_type_mach_latency_hist_seqr |         147    100.00%    100.00% |           0      0.00%    100.00% |           0      0.00%    100.00% |           0      0.00%    100.00% |           0      0.00%    100.00% |           0      0.00%    100.00% |           0      0.00%    100.00% |           0      0.00%    100.00% |           0      0.00%    100.00% |           0      0.00%    100.00%
system.noc_network.ST.L1Cache.miss_type_mach_latency_hist_seqr::total          147                      
system.noc_network.ST.hit_latency_hist_seqr::bucket_size            1                      
system.noc_network.ST.hit_latency_hist_seqr::max_bucket            9                      
system.noc_network.ST.hit_latency_hist_seqr::samples     29610395                      
system.noc_network.ST.hit_latency_hist_seqr |    29610395    100.00%    100.00% |           0      0.00%    100.00% |           0      0.00%    100.00% |           0      0.00%    100.00% |           0      0.00%    100.00% |           0      0.00%    100.00% |           0      0.00%    100.00% |           0      0.00%    100.00% |           0      0.00%    100.00% |           0      0.00%    100.00%
system.noc_network.ST.hit_latency_hist_seqr::total     29610395                      
system.noc_network.ST.latency_hist_seqr::bucket_size            1                      
system.noc_network.ST.latency_hist_seqr::max_bucket            9                      
system.noc_network.ST.latency_hist_seqr::samples     29640633                      
system.noc_network.ST.latency_hist_seqr  |    29640633    100.00%    100.00% |           0      0.00%    100.00% |           0      0.00%    100.00% |           0      0.00%    100.00% |           0      0.00%    100.00% |           0      0.00%    100.00% |           0      0.00%    100.00% |           0      0.00%    100.00% |           0      0.00%    100.00% |           0      0.00%    100.00%
system.noc_network.ST.latency_hist_seqr::total     29640633                      
system.noc_network.ST.miss_latency_hist_seqr::bucket_size            1                      
system.noc_network.ST.miss_latency_hist_seqr::max_bucket            9                      
system.noc_network.ST.miss_latency_hist_seqr::samples        30238                      
system.noc_network.ST.miss_latency_hist_seqr |       30238    100.00%    100.00% |           0      0.00%    100.00% |           0      0.00%    100.00% |           0      0.00%    100.00% |           0      0.00%    100.00% |           0      0.00%    100.00% |           0      0.00%    100.00% |           0      0.00%    100.00% |           0      0.00%    100.00% |           0      0.00%    100.00%
system.noc_network.ST.miss_latency_hist_seqr::total        30238                      
system.noc_network.delayHist::bucket_size            2                       # delay histogram for all message
system.noc_network.delayHist::max_bucket           19                       # delay histogram for all message
system.noc_network.delayHist::samples        18872022                       # delay histogram for all message
system.noc_network.delayHist::mean           9.086604                       # delay histogram for all message
system.noc_network.delayHist::gmean          8.806883                       # delay histogram for all message
system.noc_network.delayHist::stdev          2.181099                       # delay histogram for all message
system.noc_network.delayHist             |           0      0.00%      0.00% |           0      0.00%      0.00% |           0      0.00%      0.00% |     4501029     23.85%     23.85% |     4880823     25.86%     49.71% |     8974429     47.55%     97.27% |      458281      2.43%     99.70% |       56731      0.30%    100.00% |         713      0.00%    100.00% |          16      0.00%    100.00% # delay histogram for all message
system.noc_network.delayHist::total          18872022                       # delay histogram for all message
system.noc_network.delayVCHist.vnet_1::bucket_size            2                       # delay histogram for vnet_1
system.noc_network.delayVCHist.vnet_1::max_bucket           19                       # delay histogram for vnet_1
system.noc_network.delayVCHist.vnet_1::samples      9436422                       # delay histogram for vnet_1
system.noc_network.delayVCHist.vnet_1::mean    11.113455                       # delay histogram for vnet_1
system.noc_network.delayVCHist.vnet_1::gmean    11.103460                       # delay histogram for vnet_1
system.noc_network.delayVCHist.vnet_1::stdev     0.503719                       # delay histogram for vnet_1
system.noc_network.delayVCHist.vnet_1    |           0      0.00%      0.00% |           0      0.00%      0.00% |           0      0.00%      0.00% |           0      0.00%      0.00% |           0      0.00%      0.00% |     8920695     94.53%     94.53% |      458267      4.86%     99.39% |       56731      0.60%     99.99% |         713      0.01%    100.00% |          16      0.00%    100.00% # delay histogram for vnet_1
system.noc_network.delayVCHist.vnet_1::total      9436422                       # delay histogram for vnet_1
system.noc_network.delayVCHist.vnet_2::bucket_size            2                       # delay histogram for vnet_2
system.noc_network.delayVCHist.vnet_2::max_bucket           19                       # delay histogram for vnet_2
system.noc_network.delayVCHist.vnet_2::samples      9435600                       # delay histogram for vnet_2
system.noc_network.delayVCHist.vnet_2::mean     7.059576                       # delay histogram for vnet_2
system.noc_network.delayVCHist.vnet_2::gmean     6.985176                       # delay histogram for vnet_2
system.noc_network.delayVCHist.vnet_2::stdev     1.021626                       # delay histogram for vnet_2
system.noc_network.delayVCHist.vnet_2    |           0      0.00%      0.00% |           0      0.00%      0.00% |           0      0.00%      0.00% |     4501029     47.70%     47.70% |     4880823     51.73%     99.43% |       53734      0.57%    100.00% |          14      0.00%    100.00% |           0      0.00%    100.00% |           0      0.00%    100.00% |           0      0.00%    100.00% # delay histogram for vnet_2
system.noc_network.delayVCHist.vnet_2::total      9435600                       # delay histogram for vnet_2
system.noc_network.hit_latency_hist_seqr::bucket_size            1                      
system.noc_network.hit_latency_hist_seqr::max_bucket            9                      
system.noc_network.hit_latency_hist_seqr::samples    611154900                      
system.noc_network.hit_latency_hist_seqr |   611154900    100.00%    100.00% |           0      0.00%    100.00% |           0      0.00%    100.00% |           0      0.00%    100.00% |           0      0.00%    100.00% |           0      0.00%    100.00% |           0      0.00%    100.00% |           0      0.00%    100.00% |           0      0.00%    100.00% |           0      0.00%    100.00%
system.noc_network.hit_latency_hist_seqr::total    611154900                      
system.noc_network.latency_hist_seqr::bucket_size            8                      
system.noc_network.latency_hist_seqr::max_bucket           79                      
system.noc_network.latency_hist_seqr::samples    620591322                      
system.noc_network.latency_hist_seqr::mean     0.000000                      
system.noc_network.latency_hist_seqr::stdev     0.004094                      
system.noc_network.latency_hist_seqr     |   620591320    100.00%    100.00% |           0      0.00%    100.00% |           0      0.00%    100.00% |           0      0.00%    100.00% |           0      0.00%    100.00% |           0      0.00%    100.00% |           0      0.00%    100.00% |           0      0.00%    100.00% |           1      0.00%    100.00% |           1      0.00%    100.00%
system.noc_network.latency_hist_seqr::total    620591322                      
system.noc_network.miss_latency_hist_seqr::bucket_size            8                      
system.noc_network.miss_latency_hist_seqr::max_bucket           79                      
system.noc_network.miss_latency_hist_seqr::samples      9436422                      
system.noc_network.miss_latency_hist_seqr::mean     0.000015                      
system.noc_network.miss_latency_hist_seqr::stdev     0.033198                      
system.noc_network.miss_latency_hist_seqr |     9436420    100.00%    100.00% |           0      0.00%    100.00% |           0      0.00%    100.00% |           0      0.00%    100.00% |           0      0.00%    100.00% |           0      0.00%    100.00% |           0      0.00%    100.00% |           0      0.00%    100.00% |           1      0.00%    100.00% |           1      0.00%    100.00%
system.noc_network.miss_latency_hist_seqr::total      9436422                      
system.noc_network.network.average_flit_latency 17299.968545                      
system.noc_network.network.average_flit_network_latency  7440.573433                      
system.noc_network.network.average_flit_queueing_latency  9859.395112                      
[...]
system.noc_network.socket_controllers5.mem_ctrl.rdPerTurnAround::64-71           23      0.70%     98.43% # Reads before turning the bus around for writes
system.noc_network.socket_controllers5.mem_ctrl.rdPerTurnAround::72-79           31      0.94%     99.36% # Reads before turning the bus around for writes
system.noc_network.socket_controllers5.mem_ctrl.rdPerTurnAround::80-87           17      0.51%     99.88% # Reads before turning the bus around for writes
system.noc_network.socket_controllers5.mem_ctrl.rdPerTurnAround::88-95            3      0.09%     99.97% # Reads before turning the bus around for writes
system.noc_network.socket_controllers5.mem_ctrl.rdPerTurnAround::504-511            1      0.03%    100.00% # Reads before turning the bus around for writes
system.noc_network.socket_controllers5.mem_ctrl.rdPerTurnAround::total         3307                       # Reads before turning the bus around for writes
system.noc_network.socket_controllers5.mem_ctrl.wrPerTurnAround::samples         3307                       # Writes before turning the bus around for reads
system.noc_network.socket_controllers5.mem_ctrl.wrPerTurnAround::mean    17.502570                       # Writes before turning the bus around for reads
system.noc_network.socket_controllers5.mem_ctrl.wrPerTurnAround::gmean    17.480359                       # Writes before turning the bus around for reads
system.noc_network.socket_controllers5.mem_ctrl.wrPerTurnAround::stdev     0.864492                       # Writes before turning the bus around for reads
system.noc_network.socket_controllers5.mem_ctrl.wrPerTurnAround::16          822     24.86%     24.86% # Writes before turning the bus around for reads
system.noc_network.socket_controllers5.mem_ctrl.wrPerTurnAround::17            1      0.03%     24.89% # Writes before turning the bus around for reads
system.noc_network.socket_controllers5.mem_ctrl.wrPerTurnAround::18         2484     75.11%    100.00% # Writes before turning the bus around for reads
system.noc_network.socket_controllers5.mem_ctrl.wrPerTurnAround::total         3307                       # Writes before turning the bus around for reads
system.noc_network.socket_controllers5.mem_ctrl.bytesReadWrQ       571072                       # Total number of bytes read from write queue
system.noc_network.socket_controllers5.mem_ctrl.bytesReadSys      4096768                       # Total read bytes from the system interface side
system.noc_network.socket_controllers5.mem_ctrl.bytesWrittenSys      4059456                       # Total written bytes from the system interface side
system.noc_network.socket_controllers5.mem_ctrl.avgRdBWSys         3.70                       # Average system read bandwidth in MiByte/s
system.noc_network.socket_controllers5.mem_ctrl.avgWrBWSys         3.66                       # Average system write bandwidth in MiByte/s
system.noc_network.socket_controllers5.mem_ctrl.totGap 1108204597000                       # Total gap between requests
system.noc_network.socket_controllers5.mem_ctrl.avgGap   8695824.71                       # Average gap between requests
system.noc_network.socket_controllers5.mem_ctrl.requestorReadBytes::.noc_network.socket_controllers5      3525696                       # Per-requestor bytes read from memory
system.noc_network.socket_controllers5.mem_ctrl.requestorWriteBytes::.noc_network.socket_controllers5      3704384                       # Per-requestor bytes write to memory
system.noc_network.socket_controllers5.mem_ctrl.requestorReadRate::.noc_network.socket_controllers5 3181448.414628730156                       # Per-requestor bytes read from memory rate (Bytes/sec)
system.noc_network.socket_controllers5.mem_ctrl.requestorWriteRate::.noc_network.socket_controllers5 3342689.387847402133                       # Per-requestor bytes write to memory rate (Bytes/sec)
system.noc_network.socket_controllers5.mem_ctrl.requestorReadAccesses::.noc_network.socket_controllers5        64012                       # Per-requestor read serviced memory accesses
system.noc_network.socket_controllers5.mem_ctrl.requestorWriteAccesses::.noc_network.socket_controllers5        63429                       # Per-requestor write serviced memory accesses
system.noc_network.socket_controllers5.mem_ctrl.requestorReadTotalLat::.noc_network.socket_controllers5   1029757448                       # Per-requestor read total memory access latency
system.noc_network.socket_controllers5.mem_ctrl.requestorWriteTotalLat::.noc_network.socket_controllers5 61626339829748                       # Per-requestor write total memory access latency
system.noc_network.socket_controllers5.mem_ctrl.requestorReadAvgLat::.noc_network.socket_controllers5     16086.94                       # Per-requestor read average memory access latency
system.noc_network.socket_controllers5.mem_ctrl.requestorWriteAvgLat::.noc_network.socket_controllers5 971579874.03                       # Per-requestor write average memory access latency
system.noc_network.socket_controllers5.mem_ctrl.nvm.bytes_read::.noc_network.socket_controllers5      4096768                       # Number of bytes read from this memory
system.noc_network.socket_controllers5.mem_ctrl.nvm.bytes_read::total      4096768                       # Number of bytes read from this memory
system.noc_network.socket_controllers5.mem_ctrl.nvm.bytes_written::.noc_network.socket_controllers5      4059456                       # Number of bytes written to this memory
system.noc_network.socket_controllers5.mem_ctrl.nvm.bytes_written::total      4059456                       # Number of bytes written to this memory
system.noc_network.socket_controllers5.mem_ctrl.nvm.num_reads::.noc_network.socket_controllers5        64012                       # Number of read requests responded to by this memory
system.noc_network.socket_controllers5.mem_ctrl.nvm.num_reads::total        64012                       # Number of read requests responded to by this memory
system.noc_network.socket_controllers5.mem_ctrl.nvm.num_writes::.noc_network.socket_controllers5        63429                       # Number of write requests responded to by this memory
system.noc_network.socket_controllers5.mem_ctrl.nvm.num_writes::total        63429                       # Number of write requests responded to by this memory
system.noc_network.socket_controllers5.mem_ctrl.nvm.bw_read::.noc_network.socket_controllers5      3696761                       # Total read bandwidth from this memory (bytes/s)
system.noc_network.socket_controllers5.mem_ctrl.nvm.bw_read::total      3696761                       # Total read bandwidth from this memory (bytes/s)
system.noc_network.socket_controllers5.mem_ctrl.nvm.bw_write::.noc_network.socket_controllers5      3663092                       # Write bandwidth from this memory (bytes/s)
system.noc_network.socket_controllers5.mem_ctrl.nvm.bw_write::total      3663092                       # Write bandwidth from this memory (bytes/s)
system.noc_network.socket_controllers5.mem_ctrl.nvm.bw_total::.noc_network.socket_controllers5      7359853                       # Total bandwidth to/from this memory (bytes/s)
system.noc_network.socket_controllers5.mem_ctrl.nvm.bw_total::total      7359853                       # Total bandwidth to/from this memory (bytes/s)
system.noc_network.socket_controllers5.mem_ctrl.nvm.readBursts        55089                       # Number of NVM read bursts
system.noc_network.socket_controllers5.mem_ctrl.nvm.writeBursts        57881                       # Number of NVM write bursts
system.noc_network.socket_controllers5.mem_ctrl.nvm.perBankRdBursts::0         3672                       # Per bank write bursts
system.noc_network.socket_controllers5.mem_ctrl.nvm.perBankRdBursts::1         3369                       # Per bank write bursts
system.noc_network.socket_controllers5.mem_ctrl.nvm.perBankRdBursts::2         3409                       # Per bank write bursts
system.noc_network.socket_controllers5.mem_ctrl.nvm.perBankRdBursts::3         3380                       # Per bank write bursts
system.noc_network.socket_controllers5.mem_ctrl.nvm.perBankRdBursts::4         3501                       # Per bank write bursts
system.noc_network.socket_controllers5.mem_ctrl.nvm.perBankRdBursts::5         3408                       # Per bank write bursts
system.noc_network.socket_controllers5.mem_ctrl.nvm.perBankRdBursts::6         3354                       # Per bank write bursts
system.noc_network.socket_controllers5.mem_ctrl.nvm.perBankRdBursts::7         3448                       # Per bank write bursts
system.noc_network.socket_controllers5.mem_ctrl.nvm.perBankRdBursts::8         3483                       # Per bank write bursts
system.noc_network.socket_controllers5.mem_ctrl.nvm.perBankRdBursts::9         3356                       # Per bank write bursts
system.noc_network.socket_controllers5.mem_ctrl.nvm.perBankRdBursts::10         3352                       # Per bank write bursts
system.noc_network.socket_controllers5.mem_ctrl.nvm.perBankRdBursts::11         3308                       # Per bank write bursts
system.noc_network.socket_controllers5.mem_ctrl.nvm.perBankRdBursts::12         3444                       # Per bank write bursts
system.noc_network.socket_controllers5.mem_ctrl.nvm.perBankRdBursts::13         3586                       # Per bank write bursts
system.noc_network.socket_controllers5.mem_ctrl.nvm.perBankRdBursts::14         3427                       # Per bank write bursts
system.noc_network.socket_controllers5.mem_ctrl.nvm.perBankRdBursts::15         3592                       # Per bank write bursts
system.noc_network.socket_controllers5.mem_ctrl.nvm.perBankWrBursts::0         3929                       # Per bank write bursts
system.noc_network.socket_controllers5.mem_ctrl.nvm.perBankWrBursts::1         3545                       # Per bank write bursts
system.noc_network.socket_controllers5.mem_ctrl.nvm.perBankWrBursts::2         3555                       # Per bank write bursts
system.noc_network.socket_controllers5.mem_ctrl.nvm.perBankWrBursts::3         3521                       # Per bank write bursts
system.noc_network.socket_controllers5.mem_ctrl.nvm.perBankWrBursts::4         3640                       # Per bank write bursts
system.noc_network.socket_controllers5.mem_ctrl.nvm.perBankWrBursts::5         3504                       # Per bank write bursts
system.noc_network.socket_controllers5.mem_ctrl.nvm.perBankWrBursts::6         3546                       # Per bank write bursts
system.noc_network.socket_controllers5.mem_ctrl.nvm.perBankWrBursts::7         3540                       # Per bank write bursts
system.noc_network.socket_controllers5.mem_ctrl.nvm.perBankWrBursts::8         3621                       # Per bank write bursts
system.noc_network.socket_controllers5.mem_ctrl.nvm.perBankWrBursts::9         3523                       # Per bank write bursts
system.noc_network.socket_controllers5.mem_ctrl.nvm.perBankWrBursts::10         3522                       # Per bank write bursts
system.noc_network.socket_controllers5.mem_ctrl.nvm.perBankWrBursts::11         3440                       # Per bank write bursts
system.noc_network.socket_controllers5.mem_ctrl.nvm.perBankWrBursts::12         3545                       # Per bank write bursts
system.noc_network.socket_controllers5.mem_ctrl.nvm.perBankWrBursts::13         4182                       # Per bank write bursts
system.noc_network.socket_controllers5.mem_ctrl.nvm.perBankWrBursts::14         3607                       # Per bank write bursts
system.noc_network.socket_controllers5.mem_ctrl.nvm.perBankWrBursts::15         3661                       # Per bank write bursts
system.noc_network.socket_controllers5.mem_ctrl.nvm.totQLat     66140660                       # Total ticks spent queuing
system.noc_network.socket_controllers5.mem_ctrl.nvm.totBusLat    183556548                       # Total ticks spent in databus transfers
system.noc_network.socket_controllers5.mem_ctrl.nvm.totMemAccLat   1029757448                       # Total ticks spent from burst creation until serviced by the NVM
system.noc_network.socket_controllers5.mem_ctrl.nvm.avgQLat      1200.61                       # Average queueing delay per NVM burst
system.noc_network.socket_controllers5.mem_ctrl.nvm.avgBusLat      3332.00                       # Average bus latency per NVM burst
system.noc_network.socket_controllers5.mem_ctrl.nvm.avgMemAccLat     18692.61                       # Average memory access latency per NVM burst
system.noc_network.socket_controllers5.mem_ctrl.nvm.bytesRead      3525696                       # Total number of bytes read from DRAM
system.noc_network.socket_controllers5.mem_ctrl.nvm.bytesWritten      3704384                       # Total number of bytes written to DRAM
system.noc_network.socket_controllers5.mem_ctrl.nvm.avgRdBW         3.18                       # Average DRAM read bandwidth in MiBytes/s
system.noc_network.socket_controllers5.mem_ctrl.nvm.avgWrBW         3.34                       # Average DRAM write bandwidth in MiBytes/s
system.noc_network.socket_controllers5.mem_ctrl.nvm.peakBW     19207.00                       # Theoretical peak bandwidth in MiByte/s
system.noc_network.socket_controllers5.mem_ctrl.nvm.busUtil         0.03                       # NVM Data bus utilization in percentage
system.noc_network.socket_controllers5.mem_ctrl.nvm.busUtilRead         0.02                       # NVM Data bus read utilization in percentage
system.noc_network.socket_controllers5.mem_ctrl.nvm.busUtilWrite         0.02                       # NVM Data bus write utilization in percentage
system.noc_network.socket_controllers5.mem_ctrl.nvm.pendingReads::samples        55089                       # Reads issued to NVM for which data has not been transferred
system.noc_network.socket_controllers5.mem_ctrl.nvm.pendingReads::mean     0.000381                       # Reads issued to NVM for which data has not been transferred
system.noc_network.socket_controllers5.mem_ctrl.nvm.pendingReads::stdev     0.019521                       # Reads issued to NVM for which data has not been transferred
system.noc_network.socket_controllers5.mem_ctrl.nvm.pendingReads::0        55068     99.96%     99.96% # Reads issued to NVM for which data has not been transferred
system.noc_network.socket_controllers5.mem_ctrl.nvm.pendingReads::1           21      0.04%    100.00% # Reads issued to NVM for which data has not been transferred
system.noc_network.socket_controllers5.mem_ctrl.nvm.pendingReads::total        55089                       # Reads issued to NVM for which data has not been transferred
system.noc_network.socket_controllers5.mem_ctrl.nvm.pendingWrites::samples        57881                       # Number of outstanding writes to NVM
system.noc_network.socket_controllers5.mem_ctrl.nvm.pendingWrites::mean     5.800176                       # Number of outstanding writes to NVM
system.noc_network.socket_controllers5.mem_ctrl.nvm.pendingWrites::gmean     5.231724                       # Number of outstanding writes to NVM
system.noc_network.socket_controllers5.mem_ctrl.nvm.pendingWrites::stdev     1.939001                       # Number of outstanding writes to NVM
system.noc_network.socket_controllers5.mem_ctrl.nvm.pendingWrites::1         3307      5.71%      5.71% # Number of outstanding writes to NVM
system.noc_network.socket_controllers5.mem_ctrl.nvm.pendingWrites::2         3307      5.71%     11.43% # Number of outstanding writes to NVM
system.noc_network.socket_controllers5.mem_ctrl.nvm.pendingWrites::3         3307      5.71%     17.14% # Number of outstanding writes to NVM
system.noc_network.socket_controllers5.mem_ctrl.nvm.pendingWrites::4         3307      5.71%     22.85% # Number of outstanding writes to NVM
system.noc_network.socket_controllers5.mem_ctrl.nvm.pendingWrites::5         3307      5.71%     28.57% # Number of outstanding writes to NVM
system.noc_network.socket_controllers5.mem_ctrl.nvm.pendingWrites::6         3307      5.71%     34.28% # Number of outstanding writes to NVM
system.noc_network.socket_controllers5.mem_ctrl.nvm.pendingWrites::7        38039     65.72%    100.00% # Number of outstanding writes to NVM
system.noc_network.socket_controllers5.mem_ctrl.nvm.pendingWrites::total        57881                       # Number of outstanding writes to NVM
system.noc_network.socket_controllers5.mem_ctrl.nvm.bytesPerBank::samples        46674                       # Bytes read within a bank before loading new bank
system.noc_network.socket_controllers5.mem_ctrl.nvm.bytesPerBank::mean   154.882633                       # Bytes read within a bank before loading new bank
system.noc_network.socket_controllers5.mem_ctrl.nvm.bytesPerBank::gmean   127.079663                       # Bytes read within a bank before loading new bank
system.noc_network.socket_controllers5.mem_ctrl.nvm.bytesPerBank::stdev    96.042884                       # Bytes read within a bank before loading new bank
system.noc_network.socket_controllers5.mem_ctrl.nvm.bytesPerBank::64-67        19610     42.01%     42.01% # Bytes read within a bank before loading new bank
system.noc_network.socket_controllers5.mem_ctrl.nvm.bytesPerBank::128-131         6922     14.83%     56.85% # Bytes read within a bank before loading new bank
system.noc_network.socket_controllers5.mem_ctrl.nvm.bytesPerBank::192-195         5000     10.71%     67.56% # Bytes read within a bank before loading new bank
system.noc_network.socket_controllers5.mem_ctrl.nvm.bytesPerBank::256-259        13576     29.09%     96.64% # Bytes read within a bank before loading new bank
system.noc_network.socket_controllers5.mem_ctrl.nvm.bytesPerBank::320-323          459      0.98%     97.63% # Bytes read within a bank before loading new bank
system.noc_network.socket_controllers5.mem_ctrl.nvm.bytesPerBank::384-387          372      0.80%     98.43% # Bytes read within a bank before loading new bank
system.noc_network.socket_controllers5.mem_ctrl.nvm.bytesPerBank::448-451          282      0.60%     99.03% # Bytes read within a bank before loading new bank
system.noc_network.socket_controllers5.mem_ctrl.nvm.bytesPerBank::512-515          411      0.88%     99.91% # Bytes read within a bank before loading new bank
system.noc_network.socket_controllers5.mem_ctrl.nvm.bytesPerBank::576-579           24      0.05%     99.96% # Bytes read within a bank before loading new bank
system.noc_network.socket_controllers5.mem_ctrl.nvm.bytesPerBank::640-643            9      0.02%     99.98% # Bytes read within a bank before loading new bank
system.noc_network.socket_controllers5.mem_ctrl.nvm.bytesPerBank::704-707            8      0.02%    100.00% # Bytes read within a bank before loading new bank
system.noc_network.socket_controllers5.mem_ctrl.nvm.bytesPerBank::768-771            1      0.00%    100.00% # Bytes read within a bank before loading new bank
system.noc_network.socket_controllers5.mem_ctrl.nvm.bytesPerBank::total        46674                       # Bytes read within a bank before loading new bank
system.noc_network.socket_controllers5.mem_ctrl.nvm.power_state.pwrStateResidencyTicks::UNDEFINED 1108204673000                       # Cumulative time (in ticks) in various power states
system.noc_network.socket_controllers5.mem_ctrl.power_state.pwrStateResidencyTicks::UNDEFINED 1108204673000                       # Cumulative time (in ticks) in various power states
system.noc_network.socket_controllers5.power_state.pwrStateResidencyTicks::UNDEFINED 1108204673000                       # Cumulative time (in ticks) in various power states
system.noc_network.sys_port_proxy.power_state.pwrStateResidencyTicks::UNDEFINED 1108204673000                       # Cumulative time (in ticks) in various power states
system.voltage_domain.voltage                       1                       # Voltage in Volts

---------- End Simulation Statistics   ----------
