
---------- Begin Simulation Statistics ----------
final_tick                               589899727000                       # Number of ticks from beginning of simulation (restored from checkpoints and never reset)
host_inst_rate                                  28019                       # Simulator instruction rate (inst/s)
host_mem_usage                                1475452                       # Number of bytes of host memory used
host_op_rate                                    48167                       # Simulator op (including micro ops) rate (op/s)
host_seconds                                  1931.17                       # Real time elapsed on the host
host_tick_rate                              305462973                       # Simulator tick rate (ticks/s)
sim_freq                                 1000000000000                       # Frequency of simulated ticks
sim_insts                                    54109047                       # Number of instructions simulated
sim_ops                                      93017530                       # Number of ops (including micro ops) simulated
sim_seconds                                  0.589900                       # Number of seconds simulated
sim_ticks                                589899727000                       # Number of ticks simulated
system.cpu0.Branches                             5305                       # Number of branches fetched
system.cpu0.committedInsts                      25738                       # Number of instructions committed
system.cpu0.committedOps                        49574                       # Number of ops (including micro ops) committed
system.cpu0.idle_fraction                    0.999629                       # Percentage of idle cycles
system.cpu0.not_idle_fraction                0.000371                       # Percentage of non-idle cycles
system.cpu0.numCycles                       589899727                       # number of cpu cycles simulated
system.cpu0.numWorkItemsCompleted                   0                       # number of work items this cpu completed
system.cpu0.numWorkItemsStarted                     0                       # number of work items this cpu started
system.cpu0.num_busy_cycles              219016.000000                       # Number of busy cycles
system.cpu0.num_cc_register_reads               25555                       # number of times the CC registers were read
system.cpu0.num_cc_register_writes              14712                       # number of times the CC registers were written
system.cpu0.num_conditional_control_insts         3766                       # number of instructions that are conditional controls
system.cpu0.num_fp_alu_accesses                  2573                       # Number of float alu accesses
system.cpu0.num_fp_insts                         2573                       # number of float instructions
system.cpu0.num_fp_register_reads                2706                       # number of times the floating registers were read
system.cpu0.num_fp_register_writes               1201                       # number of times the floating registers were written
system.cpu0.num_func_calls                       1134                       # number of times a function call or return occured
system.cpu0.num_idle_cycles              589680711.000000                       # Number of idle cycles
system.cpu0.num_int_alu_accesses                47656                       # Number of integer alu accesses
system.cpu0.num_int_insts                       47656                       # number of integer instructions
system.cpu0.num_int_register_reads              94258                       # number of times the integer registers were read
system.cpu0.num_int_register_writes             36739                       # number of times the integer registers were written
system.cpu0.num_load_insts                       5793                       # Number of load instructions
system.cpu0.num_mem_refs                        11168                       # number of memory refs
system.cpu0.num_store_insts                      5375                       # Number of store instructions
system.cpu0.num_vec_alu_accesses                    0                       # Number of vector alu accesses
system.cpu0.num_vec_insts                           0                       # number of vector instructions
system.cpu0.num_vec_register_reads                  0                       # number of times the vector registers were read
system.cpu0.num_vec_register_writes                 0                       # number of times the vector registers were written
system.cpu0.op_class::No_OpClass                  782      1.58%      1.58% # Class of executed instruction
system.cpu0.op_class::IntAlu                    36830     74.22%     75.79% # Class of executed instruction
system.cpu0.op_class::IntMult                      15      0.03%     75.82% # Class of executed instruction
system.cpu0.op_class::IntDiv                       42      0.08%     75.91% # Class of executed instruction
system.cpu0.op_class::FloatAdd                    194      0.39%     76.30% # Class of executed instruction
system.cpu0.op_class::FloatCmp                      0      0.00%     76.30% # Class of executed instruction
system.cpu0.op_class::FloatCvt                      0      0.00%     76.30% # Class of executed instruction
system.cpu0.op_class::FloatMult                     0      0.00%     76.30% # Class of executed instruction
system.cpu0.op_class::FloatMultAcc                  0      0.00%     76.30% # Class of executed instruction
system.cpu0.op_class::FloatDiv                      0      0.00%     76.30% # Class of executed instruction
system.cpu0.op_class::FloatMisc                     0      0.00%     76.30% # Class of executed instruction
system.cpu0.op_class::FloatSqrt                     0      0.00%     76.30% # Class of executed instruction
system.cpu0.op_class::SimdAdd                       0      0.00%     76.30% # Class of executed instruction
system.cpu0.op_class::SimdAddAcc                    0      0.00%     76.30% # Class of executed instruction
system.cpu0.op_class::SimdAlu                     134      0.27%     76.57% # Class of executed instruction
system.cpu0.op_class::SimdCmp                       0      0.00%     76.57% # Class of executed instruction
system.cpu0.op_class::SimdCvt                      62      0.12%     76.69% # Class of executed instruction
system.cpu0.op_class::SimdMisc                    392      0.79%     77.48% # Class of executed instruction
system.cpu0.op_class::SimdMult                      0      0.00%     77.48% # Class of executed instruction
system.cpu0.op_class::SimdMultAcc                   0      0.00%     77.48% # Class of executed instruction
system.cpu0.op_class::SimdShift                     0      0.00%     77.48% # Class of executed instruction
system.cpu0.op_class::SimdShiftAcc                  0      0.00%     77.48% # Class of executed instruction
system.cpu0.op_class::SimdDiv                       0      0.00%     77.48% # Class of executed instruction
system.cpu0.op_class::SimdSqrt                      0      0.00%     77.48% # Class of executed instruction
system.cpu0.op_class::SimdFloatAdd                  0      0.00%     77.48% # Class of executed instruction
system.cpu0.op_class::SimdFloatAlu                  0      0.00%     77.48% # Class of executed instruction
system.cpu0.op_class::SimdFloatCmp                  0      0.00%     77.48% # Class of executed instruction
system.cpu0.op_class::SimdFloatCvt                  5      0.01%     77.49% # Class of executed instruction
system.cpu0.op_class::SimdFloatDiv                  0      0.00%     77.49% # Class of executed instruction
system.cpu0.op_class::SimdFloatMisc                 0      0.00%     77.49% # Class of executed instruction
system.cpu0.op_class::SimdFloatMult                 2      0.00%     77.50% # Class of executed instruction
system.cpu0.op_class::SimdFloatMultAcc              0      0.00%     77.50% # Class of executed instruction
system.cpu0.op_class::SimdFloatSqrt                 0      0.00%     77.50% # Class of executed instruction
system.cpu0.op_class::SimdReduceAdd                 0      0.00%     77.50% # Class of executed instruction
system.cpu0.op_class::SimdReduceAlu                 0      0.00%     77.50% # Class of executed instruction
system.cpu0.op_class::SimdReduceCmp                 0      0.00%     77.50% # Class of executed instruction
system.cpu0.op_class::SimdFloatReduceAdd            0      0.00%     77.50% # Class of executed instruction
system.cpu0.op_class::SimdFloatReduceCmp            0      0.00%     77.50% # Class of executed instruction
system.cpu0.op_class::SimdAes                       0      0.00%     77.50% # Class of executed instruction
system.cpu0.op_class::SimdAesMix                    0      0.00%     77.50% # Class of executed instruction
system.cpu0.op_class::SimdSha1Hash                  0      0.00%     77.50% # Class of executed instruction
system.cpu0.op_class::SimdSha1Hash2                 0      0.00%     77.50% # Class of executed instruction
system.cpu0.op_class::SimdSha256Hash                0      0.00%     77.50% # Class of executed instruction
system.cpu0.op_class::SimdSha256Hash2               0      0.00%     77.50% # Class of executed instruction
system.cpu0.op_class::SimdShaSigma2                 0      0.00%     77.50% # Class of executed instruction
system.cpu0.op_class::SimdShaSigma3                 0      0.00%     77.50% # Class of executed instruction
system.cpu0.op_class::SimdPredAlu                   0      0.00%     77.50% # Class of executed instruction
system.cpu0.op_class::MemRead                    5507     11.10%     88.59% # Class of executed instruction
system.cpu0.op_class::MemWrite                   4061      8.18%     96.78% # Class of executed instruction
system.cpu0.op_class::FloatMemRead                286      0.58%     97.35% # Class of executed instruction
system.cpu0.op_class::FloatMemWrite              1314      2.65%    100.00% # Class of executed instruction
system.cpu0.op_class::IprAccess                     0      0.00%    100.00% # Class of executed instruction
system.cpu0.op_class::InstPrefetch                  0      0.00%    100.00% # Class of executed instruction
system.cpu0.op_class::total                     49626                       # Class of executed instruction
system.cpu0.workload.numSyscalls                   40                       # Number of system calls
system.cpu1.Branches                           657099                       # Number of branches fetched
system.cpu1.committedInsts                   16609250                       # Number of instructions committed
system.cpu1.committedOps                     28394720                       # Number of ops (including micro ops) committed
system.cpu1.idle_fraction                    0.025153                       # Percentage of idle cycles
system.cpu1.not_idle_fraction                0.974847                       # Percentage of non-idle cycles
system.cpu1.numCycles                       585491983                       # number of cpu cycles simulated
system.cpu1.numWorkItemsCompleted                   0                       # number of work items this cpu completed
system.cpu1.numWorkItemsStarted                     0                       # number of work items this cpu started
system.cpu1.num_busy_cycles              570765177.424709                       # Number of busy cycles
system.cpu1.num_cc_register_reads             3195163                       # number of times the CC registers were read
system.cpu1.num_cc_register_writes            7906033                       # number of times the CC registers were written
system.cpu1.num_conditional_control_insts       616094                       # number of instructions that are conditional controls
system.cpu1.num_fp_alu_accesses                 20545                       # Number of float alu accesses
system.cpu1.num_fp_insts                        20545                       # number of float instructions
system.cpu1.num_fp_register_reads               25425                       # number of times the floating registers were read
system.cpu1.num_fp_register_writes              17508                       # number of times the floating registers were written
system.cpu1.num_func_calls                       1839                       # number of times a function call or return occured
system.cpu1.num_idle_cycles              14726805.575291                       # Number of idle cycles
system.cpu1.num_int_alu_accesses             28378037                       # Number of integer alu accesses
system.cpu1.num_int_insts                    28378037                       # number of integer instructions
system.cpu1.num_int_register_reads           71364612                       # number of times the integer registers were read
system.cpu1.num_int_register_writes          24971294                       # number of times the integer registers were written
system.cpu1.num_load_insts                    8320121                       # Number of load instructions
system.cpu1.num_mem_refs                     12168908                       # number of memory refs
system.cpu1.num_store_insts                   3848787                       # Number of store instructions
system.cpu1.num_vec_alu_accesses                    0                       # Number of vector alu accesses
system.cpu1.num_vec_insts                           0                       # number of vector instructions
system.cpu1.num_vec_register_reads                  0                       # number of times the vector registers were read
system.cpu1.num_vec_register_writes                 0                       # number of times the vector registers were written
system.cpu1.op_class::No_OpClass                 3972      0.01%      0.01% # Class of executed instruction
system.cpu1.op_class::IntAlu                 15123856     53.26%     53.28% # Class of executed instruction
system.cpu1.op_class::IntMult                 1068751      3.76%     57.04% # Class of executed instruction
system.cpu1.op_class::IntDiv                    16496      0.06%     57.10% # Class of executed instruction
system.cpu1.op_class::FloatAdd                   3824      0.01%     57.11% # Class of executed instruction
system.cpu1.op_class::FloatCmp                      0      0.00%     57.11% # Class of executed instruction
system.cpu1.op_class::FloatCvt                      0      0.00%     57.11% # Class of executed instruction
system.cpu1.op_class::FloatMult                     0      0.00%     57.11% # Class of executed instruction
system.cpu1.op_class::FloatMultAcc                  0      0.00%     57.11% # Class of executed instruction
system.cpu1.op_class::FloatDiv                      0      0.00%     57.11% # Class of executed instruction
system.cpu1.op_class::FloatMisc                     0      0.00%     57.11% # Class of executed instruction
system.cpu1.op_class::FloatSqrt                     0      0.00%     57.11% # Class of executed instruction
system.cpu1.op_class::SimdAdd                       0      0.00%     57.11% # Class of executed instruction
system.cpu1.op_class::SimdAddAcc                    0      0.00%     57.11% # Class of executed instruction
system.cpu1.op_class::SimdAlu                     898      0.00%     57.12% # Class of executed instruction
system.cpu1.op_class::SimdCmp                       0      0.00%     57.12% # Class of executed instruction
system.cpu1.op_class::SimdCvt                      20      0.00%     57.12% # Class of executed instruction
system.cpu1.op_class::SimdMisc                   1246      0.00%     57.12% # Class of executed instruction
system.cpu1.op_class::SimdMult                      0      0.00%     57.12% # Class of executed instruction
system.cpu1.op_class::SimdMultAcc                   0      0.00%     57.12% # Class of executed instruction
system.cpu1.op_class::SimdShift                     0      0.00%     57.12% # Class of executed instruction
system.cpu1.op_class::SimdShiftAcc                  0      0.00%     57.12% # Class of executed instruction
system.cpu1.op_class::SimdDiv                       0      0.00%     57.12% # Class of executed instruction
system.cpu1.op_class::SimdSqrt                      0      0.00%     57.12% # Class of executed instruction
system.cpu1.op_class::SimdFloatAdd               2320      0.01%     57.13% # Class of executed instruction
system.cpu1.op_class::SimdFloatAlu                  0      0.00%     57.13% # Class of executed instruction
system.cpu1.op_class::SimdFloatCmp                  0      0.00%     57.13% # Class of executed instruction
system.cpu1.op_class::SimdFloatCvt               1504      0.01%     57.13% # Class of executed instruction
system.cpu1.op_class::SimdFloatDiv                232      0.00%     57.13% # Class of executed instruction
system.cpu1.op_class::SimdFloatMisc                 0      0.00%     57.13% # Class of executed instruction
system.cpu1.op_class::SimdFloatMult              2724      0.01%     57.14% # Class of executed instruction
system.cpu1.op_class::SimdFloatMultAcc              0      0.00%     57.14% # Class of executed instruction
system.cpu1.op_class::SimdFloatSqrt                 0      0.00%     57.14% # Class of executed instruction
system.cpu1.op_class::SimdReduceAdd                 0      0.00%     57.14% # Class of executed instruction
system.cpu1.op_class::SimdReduceAlu                 0      0.00%     57.14% # Class of executed instruction
system.cpu1.op_class::SimdReduceCmp                 0      0.00%     57.14% # Class of executed instruction
system.cpu1.op_class::SimdFloatReduceAdd            0      0.00%     57.14% # Class of executed instruction
system.cpu1.op_class::SimdFloatReduceCmp            0      0.00%     57.14% # Class of executed instruction
system.cpu1.op_class::SimdAes                       0      0.00%     57.14% # Class of executed instruction
system.cpu1.op_class::SimdAesMix                    0      0.00%     57.14% # Class of executed instruction
system.cpu1.op_class::SimdSha1Hash                  0      0.00%     57.14% # Class of executed instruction
system.cpu1.op_class::SimdSha1Hash2                 0      0.00%     57.14% # Class of executed instruction
system.cpu1.op_class::SimdSha256Hash                0      0.00%     57.14% # Class of executed instruction
system.cpu1.op_class::SimdSha256Hash2               0      0.00%     57.14% # Class of executed instruction
system.cpu1.op_class::SimdShaSigma2                 0      0.00%     57.14% # Class of executed instruction
system.cpu1.op_class::SimdShaSigma3                 0      0.00%     57.14% # Class of executed instruction
system.cpu1.op_class::SimdPredAlu                   0      0.00%     57.14% # Class of executed instruction
system.cpu1.op_class::MemRead                 8314900     29.28%     86.43% # Class of executed instruction
system.cpu1.op_class::MemWrite                3847162     13.55%     99.98% # Class of executed instruction
system.cpu1.op_class::FloatMemRead               5221      0.02%     99.99% # Class of executed instruction
system.cpu1.op_class::FloatMemWrite              1625      0.01%    100.00% # Class of executed instruction
system.cpu1.op_class::IprAccess                     0      0.00%    100.00% # Class of executed instruction
system.cpu1.op_class::InstPrefetch                  0      0.00%    100.00% # Class of executed instruction
system.cpu1.op_class::total                  28394751                       # Class of executed instruction
system.cpu2.Branches                           657107                       # Number of branches fetched
system.cpu2.committedInsts                   16609156                       # Number of instructions committed
system.cpu2.committedOps                     28394619                       # Number of ops (including micro ops) committed
system.cpu2.idle_fraction                    0.029909                       # Percentage of idle cycles
system.cpu2.not_idle_fraction                0.970091                       # Percentage of non-idle cycles
system.cpu2.numCycles                       582623153                       # number of cpu cycles simulated
system.cpu2.numWorkItemsCompleted                   0                       # number of work items this cpu completed
system.cpu2.numWorkItemsStarted                     0                       # number of work items this cpu started
system.cpu2.num_busy_cycles              565197374.334480                       # Number of busy cycles
system.cpu2.num_cc_register_reads             3195188                       # number of times the CC registers were read
system.cpu2.num_cc_register_writes            7906007                       # number of times the CC registers were written
system.cpu2.num_conditional_control_insts       616104                       # number of instructions that are conditional controls
system.cpu2.num_fp_alu_accesses                 20475                       # Number of float alu accesses
system.cpu2.num_fp_insts                        20475                       # number of float instructions
system.cpu2.num_fp_register_reads               25306                       # number of times the floating registers were read
system.cpu2.num_fp_register_writes              17437                       # number of times the floating registers were written
system.cpu2.num_func_calls                       1843                       # number of times a function call or return occured
system.cpu2.num_idle_cycles              17425778.665520                       # Number of idle cycles
system.cpu2.num_int_alu_accesses             28377989                       # Number of integer alu accesses
system.cpu2.num_int_insts                    28377989                       # number of integer instructions
system.cpu2.num_int_register_reads           71364538                       # number of times the integer registers were read
system.cpu2.num_int_register_writes          24971267                       # number of times the integer registers were written
system.cpu2.num_load_insts                    8320088                       # Number of load instructions
system.cpu2.num_mem_refs                     12168880                       # number of memory refs
system.cpu2.num_store_insts                   3848792                       # Number of store instructions
system.cpu2.num_vec_alu_accesses                    0                       # Number of vector alu accesses
system.cpu2.num_vec_insts                           0                       # number of vector instructions
system.cpu2.num_vec_register_reads                  0                       # number of times the vector registers were read
system.cpu2.num_vec_register_writes                 0                       # number of times the vector registers were written
system.cpu2.op_class::No_OpClass                 3976      0.01%      0.01% # Class of executed instruction
system.cpu2.op_class::IntAlu                 15123823     53.26%     53.28% # Class of executed instruction
system.cpu2.op_class::IntMult                 1068751      3.76%     57.04% # Class of executed instruction
system.cpu2.op_class::IntDiv                    16504      0.06%     57.10% # Class of executed instruction
system.cpu2.op_class::FloatAdd                   3810      0.01%     57.11% # Class of executed instruction
system.cpu2.op_class::FloatCmp                      0      0.00%     57.11% # Class of executed instruction
system.cpu2.op_class::FloatCvt                      0      0.00%     57.11% # Class of executed instruction
system.cpu2.op_class::FloatMult                     0      0.00%     57.11% # Class of executed instruction
system.cpu2.op_class::FloatMultAcc                  0      0.00%     57.11% # Class of executed instruction
system.cpu2.op_class::FloatDiv                      0      0.00%     57.11% # Class of executed instruction
system.cpu2.op_class::FloatMisc                     0      0.00%     57.11% # Class of executed instruction
system.cpu2.op_class::FloatSqrt                     0      0.00%     57.11% # Class of executed instruction
system.cpu2.op_class::SimdAdd                       0      0.00%     57.11% # Class of executed instruction
system.cpu2.op_class::SimdAddAcc                    0      0.00%     57.11% # Class of executed instruction
system.cpu2.op_class::SimdAlu                     898      0.00%     57.12% # Class of executed instruction
system.cpu2.op_class::SimdCmp                       0      0.00%     57.12% # Class of executed instruction
system.cpu2.op_class::SimdCvt                      20      0.00%     57.12% # Class of executed instruction
system.cpu2.op_class::SimdMisc                   1244      0.00%     57.12% # Class of executed instruction
system.cpu2.op_class::SimdMult                      0      0.00%     57.12% # Class of executed instruction
system.cpu2.op_class::SimdMultAcc                   0      0.00%     57.12% # Class of executed instruction
system.cpu2.op_class::SimdShift                     0      0.00%     57.12% # Class of executed instruction
system.cpu2.op_class::SimdShiftAcc                  0      0.00%     57.12% # Class of executed instruction
system.cpu2.op_class::SimdDiv                       0      0.00%     57.12% # Class of executed instruction
system.cpu2.op_class::SimdSqrt                      0      0.00%     57.12% # Class of executed instruction
system.cpu2.op_class::SimdFloatAdd               2302      0.01%     57.13% # Class of executed instruction
system.cpu2.op_class::SimdFloatAlu                  0      0.00%     57.13% # Class of executed instruction
system.cpu2.op_class::SimdFloatCmp                  0      0.00%     57.13% # Class of executed instruction
system.cpu2.op_class::SimdFloatCvt               1504      0.01%     57.13% # Class of executed instruction
system.cpu2.op_class::SimdFloatDiv                232      0.00%     57.13% # Class of executed instruction
system.cpu2.op_class::SimdFloatMisc                 0      0.00%     57.13% # Class of executed instruction
system.cpu2.op_class::SimdFloatMult              2704      0.01%     57.14% # Class of executed instruction
system.cpu2.op_class::SimdFloatMultAcc              0      0.00%     57.14% # Class of executed instruction
system.cpu2.op_class::SimdFloatSqrt                 0      0.00%     57.14% # Class of executed instruction
system.cpu2.op_class::SimdReduceAdd                 0      0.00%     57.14% # Class of executed instruction
system.cpu2.op_class::SimdReduceAlu                 0      0.00%     57.14% # Class of executed instruction
system.cpu2.op_class::SimdReduceCmp                 0      0.00%     57.14% # Class of executed instruction
system.cpu2.op_class::SimdFloatReduceAdd            0      0.00%     57.14% # Class of executed instruction
system.cpu2.op_class::SimdFloatReduceCmp            0      0.00%     57.14% # Class of executed instruction
system.cpu2.op_class::SimdAes                       0      0.00%     57.14% # Class of executed instruction
system.cpu2.op_class::SimdAesMix                    0      0.00%     57.14% # Class of executed instruction
system.cpu2.op_class::SimdSha1Hash                  0      0.00%     57.14% # Class of executed instruction
system.cpu2.op_class::SimdSha1Hash2                 0      0.00%     57.14% # Class of executed instruction
system.cpu2.op_class::SimdSha256Hash                0      0.00%     57.14% # Class of executed instruction
system.cpu2.op_class::SimdSha256Hash2               0      0.00%     57.14% # Class of executed instruction
system.cpu2.op_class::SimdShaSigma2                 0      0.00%     57.14% # Class of executed instruction
system.cpu2.op_class::SimdShaSigma3                 0      0.00%     57.14% # Class of executed instruction
system.cpu2.op_class::SimdPredAlu                   0      0.00%     57.14% # Class of executed instruction
system.cpu2.op_class::MemRead                 8314883     29.28%     86.43% # Class of executed instruction
system.cpu2.op_class::MemWrite                3847164     13.55%     99.98% # Class of executed instruction
system.cpu2.op_class::FloatMemRead               5205      0.02%     99.99% # Class of executed instruction
system.cpu2.op_class::FloatMemWrite              1628      0.01%    100.00% # Class of executed instruction
system.cpu2.op_class::IprAccess                     0      0.00%    100.00% # Class of executed instruction
system.cpu2.op_class::InstPrefetch                  0      0.00%    100.00% # Class of executed instruction
system.cpu2.op_class::total                  28394648                       # Class of executed instruction
system.cpu3.Branches                          1401624                       # Number of branches fetched
system.cpu3.committedInsts                   20864903                       # Number of instructions committed
system.cpu3.committedOps                     36178617                       # Number of ops (including micro ops) committed
system.cpu3.idle_fraction                    0.000389                       # Percentage of idle cycles
system.cpu3.not_idle_fraction                0.999611                       # Percentage of non-idle cycles
system.cpu3.numCycles                       589861467                       # number of cpu cycles simulated
system.cpu3.numWorkItemsCompleted                   0                       # number of work items this cpu completed
system.cpu3.numWorkItemsStarted                     0                       # number of work items this cpu started
system.cpu3.num_busy_cycles              589632285.864305                       # Number of busy cycles
system.cpu3.num_cc_register_reads             6154862                       # number of times the CC registers were read
system.cpu3.num_cc_register_writes           10261968                       # number of times the CC registers were written
system.cpu3.num_conditional_control_insts      1036960                       # number of instructions that are conditional controls
system.cpu3.num_fp_alu_accesses                 22552                       # Number of float alu accesses
system.cpu3.num_fp_insts                        22552                       # number of float instructions
system.cpu3.num_fp_register_reads               28296                       # number of times the floating registers were read
system.cpu3.num_fp_register_writes              19016                       # number of times the floating registers were written
system.cpu3.num_func_calls                     194937                       # number of times a function call or return occured
system.cpu3.num_idle_cycles              229181.135695                       # Number of idle cycles
system.cpu3.num_int_alu_accesses             36137510                       # Number of integer alu accesses
system.cpu3.num_int_insts                    36137510                       # number of integer instructions
system.cpu3.num_int_register_reads           87527858                       # number of times the integer registers were read
system.cpu3.num_int_register_writes          31489178                       # number of times the integer registers were written
system.cpu3.num_load_insts                    9398447                       # Number of load instructions
system.cpu3.num_mem_refs                     13815867                       # number of memory refs
system.cpu3.num_store_insts                   4417420                       # Number of store instructions
system.cpu3.num_vec_alu_accesses                    0                       # Number of vector alu accesses
system.cpu3.num_vec_insts                           0                       # number of vector instructions
system.cpu3.num_vec_register_reads                  0                       # number of times the vector registers were read
system.cpu3.num_vec_register_writes                 0                       # number of times the vector registers were written
system.cpu3.op_class::No_OpClass                27152      0.08%      0.08% # Class of executed instruction
system.cpu3.op_class::IntAlu                 21165750     58.50%     58.58% # Class of executed instruction
system.cpu3.op_class::IntMult                 1138215      3.15%     61.72% # Class of executed instruction
system.cpu3.op_class::IntDiv                    17564      0.05%     61.77% # Class of executed instruction
system.cpu3.op_class::FloatAdd                   3932      0.01%     61.78% # Class of executed instruction
system.cpu3.op_class::FloatCmp                      0      0.00%     61.78% # Class of executed instruction
system.cpu3.op_class::FloatCvt                      0      0.00%     61.78% # Class of executed instruction
system.cpu3.op_class::FloatMult                     0      0.00%     61.78% # Class of executed instruction
system.cpu3.op_class::FloatMultAcc                  0      0.00%     61.78% # Class of executed instruction
system.cpu3.op_class::FloatDiv                      0      0.00%     61.78% # Class of executed instruction
system.cpu3.op_class::FloatMisc                     0      0.00%     61.78% # Class of executed instruction
system.cpu3.op_class::FloatSqrt                     0      0.00%     61.78% # Class of executed instruction
system.cpu3.op_class::SimdAdd                       0      0.00%     61.78% # Class of executed instruction
system.cpu3.op_class::SimdAddAcc                    0      0.00%     61.78% # Class of executed instruction
system.cpu3.op_class::SimdAlu                    1654      0.00%     61.79% # Class of executed instruction
system.cpu3.op_class::SimdCmp                       0      0.00%     61.79% # Class of executed instruction
system.cpu3.op_class::SimdCvt                     210      0.00%     61.79% # Class of executed instruction
system.cpu3.op_class::SimdMisc                   1557      0.00%     61.79% # Class of executed instruction
system.cpu3.op_class::SimdMult                      0      0.00%     61.79% # Class of executed instruction
system.cpu3.op_class::SimdMultAcc                   0      0.00%     61.79% # Class of executed instruction
system.cpu3.op_class::SimdShift                     0      0.00%     61.79% # Class of executed instruction
system.cpu3.op_class::SimdShiftAcc                  0      0.00%     61.79% # Class of executed instruction
system.cpu3.op_class::SimdDiv                       0      0.00%     61.79% # Class of executed instruction
system.cpu3.op_class::SimdSqrt                      0      0.00%     61.79% # Class of executed instruction
system.cpu3.op_class::SimdFloatAdd               2310      0.01%     61.80% # Class of executed instruction
system.cpu3.op_class::SimdFloatAlu                  0      0.00%     61.80% # Class of executed instruction
system.cpu3.op_class::SimdFloatCmp                  0      0.00%     61.80% # Class of executed instruction
system.cpu3.op_class::SimdFloatCvt               1497      0.00%     61.80% # Class of executed instruction
system.cpu3.op_class::SimdFloatDiv                231      0.00%     61.80% # Class of executed instruction
system.cpu3.op_class::SimdFloatMisc                 0      0.00%     61.80% # Class of executed instruction
system.cpu3.op_class::SimdFloatMult              2712      0.01%     61.81% # Class of executed instruction
system.cpu3.op_class::SimdFloatMultAcc              0      0.00%     61.81% # Class of executed instruction
system.cpu3.op_class::SimdFloatSqrt                 0      0.00%     61.81% # Class of executed instruction
system.cpu3.op_class::SimdReduceAdd                 0      0.00%     61.81% # Class of executed instruction
system.cpu3.op_class::SimdReduceAlu                 0      0.00%     61.81% # Class of executed instruction
system.cpu3.op_class::SimdReduceCmp                 0      0.00%     61.81% # Class of executed instruction
system.cpu3.op_class::SimdFloatReduceAdd            0      0.00%     61.81% # Class of executed instruction
system.cpu3.op_class::SimdFloatReduceCmp            0      0.00%     61.81% # Class of executed instruction
system.cpu3.op_class::SimdAes                       0      0.00%     61.81% # Class of executed instruction
system.cpu3.op_class::SimdAesMix                    0      0.00%     61.81% # Class of executed instruction
system.cpu3.op_class::SimdSha1Hash                  0      0.00%     61.81% # Class of executed instruction
system.cpu3.op_class::SimdSha1Hash2                 0      0.00%     61.81% # Class of executed instruction
system.cpu3.op_class::SimdSha256Hash                0      0.00%     61.81% # Class of executed instruction
system.cpu3.op_class::SimdSha256Hash2               0      0.00%     61.81% # Class of executed instruction
system.cpu3.op_class::SimdShaSigma2                 0      0.00%     61.81% # Class of executed instruction
system.cpu3.op_class::SimdShaSigma3                 0      0.00%     61.81% # Class of executed instruction
system.cpu3.op_class::SimdPredAlu                   0      0.00%     61.81% # Class of executed instruction
system.cpu3.op_class::MemRead                 9392992     25.96%     87.77% # Class of executed instruction
system.cpu3.op_class::MemWrite                4415480     12.20%     99.98% # Class of executed instruction
system.cpu3.op_class::FloatMemRead               5455      0.02%     99.99% # Class of executed instruction
system.cpu3.op_class::FloatMemWrite              1940      0.01%    100.00% # Class of executed instruction
system.cpu3.op_class::IprAccess                     0      0.00%    100.00% # Class of executed instruction
system.cpu3.op_class::InstPrefetch                  0      0.00%    100.00% # Class of executed instruction
system.cpu3.op_class::total                  36178651                       # Class of executed instruction
system.noc_network.Directory.incomplete_times_seqr        11285                      
system.noc_network.Directory.miss_latency_hist_seqr.first_response_to_completion::bucket_size            8                      
system.noc_network.Directory.miss_latency_hist_seqr.first_response_to_completion::max_bucket           79                      
system.noc_network.Directory.miss_latency_hist_seqr.first_response_to_completion::samples            1                      
system.noc_network.Directory.miss_latency_hist_seqr.first_response_to_completion::mean           64                      
system.noc_network.Directory.miss_latency_hist_seqr.first_response_to_completion::gmean    64.000000                      
system.noc_network.Directory.miss_latency_hist_seqr.first_response_to_completion::stdev          nan                      
system.noc_network.Directory.miss_latency_hist_seqr.first_response_to_completion |           0      0.00%      0.00% |           0      0.00%      0.00% |           0      0.00%      0.00% |           0      0.00%      0.00% |           0      0.00%      0.00% |           0      0.00%      0.00% |           0      0.00%      0.00% |           0      0.00%      0.00% |           1    100.00%    100.00% |           0      0.00%    100.00%
system.noc_network.Directory.miss_latency_hist_seqr.first_response_to_completion::total            1                      
system.noc_network.Directory.miss_latency_hist_seqr.forward_to_first_response::bucket_size            1                      
system.noc_network.Directory.miss_latency_hist_seqr.forward_to_first_response::max_bucket            9                      
system.noc_network.Directory.miss_latency_hist_seqr.forward_to_first_response::samples            1                      
system.noc_network.Directory.miss_latency_hist_seqr.forward_to_first_response::stdev          nan                      
system.noc_network.Directory.miss_latency_hist_seqr.forward_to_first_response |           1    100.00%    100.00% |           0      0.00%    100.00% |           0      0.00%    100.00% |           0      0.00%    100.00% |           0      0.00%    100.00% |           0      0.00%    100.00% |           0      0.00%    100.00% |           0      0.00%    100.00% |           0      0.00%    100.00% |           0      0.00%    100.00%
system.noc_network.Directory.miss_latency_hist_seqr.forward_to_first_response::total            1                      
system.noc_network.Directory.miss_latency_hist_seqr.initial_to_forward::bucket_size            1                      
system.noc_network.Directory.miss_latency_hist_seqr.initial_to_forward::max_bucket            9                      
system.noc_network.Directory.miss_latency_hist_seqr.initial_to_forward::samples            1                      
system.noc_network.Directory.miss_latency_hist_seqr.initial_to_forward::stdev          nan                      
system.noc_network.Directory.miss_latency_hist_seqr.initial_to_forward |           1    100.00%    100.00% |           0      0.00%    100.00% |           0      0.00%    100.00% |           0      0.00%    100.00% |           0      0.00%    100.00% |           0      0.00%    100.00% |           0      0.00%    100.00% |           0      0.00%    100.00% |           0      0.00%    100.00% |           0      0.00%    100.00%
system.noc_network.Directory.miss_latency_hist_seqr.initial_to_forward::total            1                      
system.noc_network.Directory.miss_latency_hist_seqr.issue_to_initial_request::bucket_size            1                      
system.noc_network.Directory.miss_latency_hist_seqr.issue_to_initial_request::max_bucket            9                      
system.noc_network.Directory.miss_latency_hist_seqr.issue_to_initial_request::samples            1                      
system.noc_network.Directory.miss_latency_hist_seqr.issue_to_initial_request::stdev          nan                      
system.noc_network.Directory.miss_latency_hist_seqr.issue_to_initial_request |           1    100.00%    100.00% |           0      0.00%    100.00% |           0      0.00%    100.00% |           0      0.00%    100.00% |           0      0.00%    100.00% |           0      0.00%    100.00% |           0      0.00%    100.00% |           0      0.00%    100.00% |           0      0.00%    100.00% |           0      0.00%    100.00%
system.noc_network.Directory.miss_latency_hist_seqr.issue_to_initial_request::total            1                      
system.noc_network.Directory.miss_mach_latency_hist_seqr::bucket_size            8                      
system.noc_network.Directory.miss_mach_latency_hist_seqr::max_bucket           79                      
system.noc_network.Directory.miss_mach_latency_hist_seqr::samples        11286                      
system.noc_network.Directory.miss_mach_latency_hist_seqr::mean     0.005671                      
system.noc_network.Directory.miss_mach_latency_hist_seqr::stdev     0.602435                      
system.noc_network.Directory.miss_mach_latency_hist_seqr |       11285     99.99%     99.99% |           0      0.00%     99.99% |           0      0.00%     99.99% |           0      0.00%     99.99% |           0      0.00%     99.99% |           0      0.00%     99.99% |           0      0.00%     99.99% |           0      0.00%     99.99% |           1      0.01%    100.00% |           0      0.00%    100.00%
system.noc_network.Directory.miss_mach_latency_hist_seqr::total        11286                      
system.noc_network.Directory_Controller.GETX |    21331341     91.25%     91.25% |     2044790      8.75%    100.00%
system.noc_network.Directory_Controller.GETX::total     23376131                      
system.noc_network.Directory_Controller.I.GETX |       10560     93.57%     93.57% |         726      6.43%    100.00%
system.noc_network.Directory_Controller.I.GETX::total        11286                      
system.noc_network.Directory_Controller.IM.Memory_Data |       10560     93.57%     93.57% |         726      6.43%    100.00%
system.noc_network.Directory_Controller.IM.Memory_Data::total        11286                      
system.noc_network.Directory_Controller.M.GETX |    21320781     91.25%     91.25% |     2044064      8.75%    100.00%
system.noc_network.Directory_Controller.M.GETX::total     23364845                      
system.noc_network.Directory_Controller.M.PUTX |       10060     94.41%     94.41% |         596      5.59%    100.00%
system.noc_network.Directory_Controller.M.PUTX::total        10656                      
system.noc_network.Directory_Controller.MI.Memory_Ack |       10060     94.41%     94.41% |         596      5.59%    100.00%
system.noc_network.Directory_Controller.MI.Memory_Ack::total        10656                      
system.noc_network.Directory_Controller.Memory_Ack |       10060     94.41%     94.41% |         596      5.59%    100.00%
system.noc_network.Directory_Controller.Memory_Ack::total        10656                      
system.noc_network.Directory_Controller.Memory_Data |       10560     93.57%     93.57% |         726      6.43%    100.00%
system.noc_network.Directory_Controller.Memory_Data::total        11286                      
system.noc_network.Directory_Controller.PUTX |       10060     94.41%     94.41% |         596      5.59%    100.00%
system.noc_network.Directory_Controller.PUTX::total        10656                      
system.noc_network.IFETCH.Directory.miss_type_mach_latency_hist_seqr::bucket_size            8                      
system.noc_network.IFETCH.Directory.miss_type_mach_latency_hist_seqr::max_bucket           79                      
system.noc_network.IFETCH.Directory.miss_type_mach_latency_hist_seqr::samples         1589                      
system.noc_network.IFETCH.Directory.miss_type_mach_latency_hist_seqr::mean     0.040277                      
system.noc_network.IFETCH.Directory.miss_type_mach_latency_hist_seqr::stdev     1.605529                      
system.noc_network.IFETCH.Directory.miss_type_mach_latency_hist_seqr |        1588     99.94%     99.94% |           0      0.00%     99.94% |           0      0.00%     99.94% |           0      0.00%     99.94% |           0      0.00%     99.94% |           0      0.00%     99.94% |           0      0.00%     99.94% |           0      0.00%     99.94% |           1      0.06%    100.00% |           0      0.00%    100.00%
system.noc_network.IFETCH.Directory.miss_type_mach_latency_hist_seqr::total         1589                      
system.noc_network.IFETCH.L1Cache.miss_type_mach_latency_hist_seqr::bucket_size            1                      
system.noc_network.IFETCH.L1Cache.miss_type_mach_latency_hist_seqr::max_bucket            9                      
system.noc_network.IFETCH.L1Cache.miss_type_mach_latency_hist_seqr::samples     21309287                      
system.noc_network.IFETCH.L1Cache.miss_type_mach_latency_hist_seqr |    21309287    100.00%    100.00% |           0      0.00%    100.00% |           0      0.00%    100.00% |           0      0.00%    100.00% |           0      0.00%    100.00% |           0      0.00%    100.00% |           0      0.00%    100.00% |           0      0.00%    100.00% |           0      0.00%    100.00% |           0      0.00%    100.00%
system.noc_network.IFETCH.L1Cache.miss_type_mach_latency_hist_seqr::total     21309287                      
system.noc_network.IFETCH.hit_latency_hist_seqr::bucket_size            1                      
system.noc_network.IFETCH.hit_latency_hist_seqr::max_bucket            9                      
system.noc_network.IFETCH.hit_latency_hist_seqr::samples     49083790                      
system.noc_network.IFETCH.hit_latency_hist_seqr |    49083790    100.00%    100.00% |           0      0.00%    100.00% |           0      0.00%    100.00% |           0      0.00%    100.00% |           0      0.00%    100.00% |           0      0.00%    100.00% |           0      0.00%    100.00% |           0      0.00%    100.00% |           0      0.00%    100.00% |           0      0.00%    100.00%
system.noc_network.IFETCH.hit_latency_hist_seqr::total     49083790                      
system.noc_network.IFETCH.latency_hist_seqr::bucket_size            8                      
system.noc_network.IFETCH.latency_hist_seqr::max_bucket           79                      
system.noc_network.IFETCH.latency_hist_seqr::samples     70394666                      
system.noc_network.IFETCH.latency_hist_seqr::mean     0.000001                      
system.noc_network.IFETCH.latency_hist_seqr::stdev     0.007628                      
system.noc_network.IFETCH.latency_hist_seqr |    70394665    100.00%    100.00% |           0      0.00%    100.00% |           0      0.00%    100.00% |           0      0.00%    100.00% |           0      0.00%    100.00% |           0      0.00%    100.00% |           0      0.00%    100.00% |           0      0.00%    100.00% |           1      0.00%    100.00% |           0      0.00%    100.00%
system.noc_network.IFETCH.latency_hist_seqr::total     70394666                      
system.noc_network.IFETCH.miss_latency_hist_seqr::bucket_size            8                      
system.noc_network.IFETCH.miss_latency_hist_seqr::max_bucket           79                      
system.noc_network.IFETCH.miss_latency_hist_seqr::samples     21310876                      
system.noc_network.IFETCH.miss_latency_hist_seqr::mean     0.000003                      
system.noc_network.IFETCH.miss_latency_hist_seqr::stdev     0.013864                      
system.noc_network.IFETCH.miss_latency_hist_seqr |    21310875    100.00%    100.00% |           0      0.00%    100.00% |           0      0.00%    100.00% |           0      0.00%    100.00% |           0      0.00%    100.00% |           0      0.00%    100.00% |           0      0.00%    100.00% |           0      0.00%    100.00% |           1      0.00%    100.00% |           0      0.00%    100.00%
system.noc_network.IFETCH.miss_latency_hist_seqr::total     21310876                      
system.noc_network.L1Cache.incomplete_times_seqr     23364845                      
system.noc_network.L1Cache.miss_mach_latency_hist_seqr::bucket_size            1                      
system.noc_network.L1Cache.miss_mach_latency_hist_seqr::max_bucket            9                      
system.noc_network.L1Cache.miss_mach_latency_hist_seqr::samples     23364845                      
system.noc_network.L1Cache.miss_mach_latency_hist_seqr |    23364845    100.00%    100.00% |           0      0.00%    100.00% |           0      0.00%    100.00% |           0      0.00%    100.00% |           0      0.00%    100.00% |           0      0.00%    100.00% |           0      0.00%    100.00% |           0      0.00%    100.00% |           0      0.00%    100.00% |           0      0.00%    100.00%
system.noc_network.L1Cache.miss_mach_latency_hist_seqr::total     23364845                      
system.noc_network.L1Cache_Controller.Data |        1700      0.01%      0.01% |     7825233     33.48%     33.48% |     7722775     33.04%     66.52% |     7826423     33.48%    100.00%
system.noc_network.L1Cache_Controller.Data::total     23376131                      
system.noc_network.L1Cache_Controller.Fwd_GETX |         212      0.00%      0.00% |     7824749     33.49%     33.49% |     7722435     33.05%     66.54% |     7817449     33.46%    100.00%
system.noc_network.L1Cache_Controller.Fwd_GETX::total     23364845                      
system.noc_network.L1Cache_Controller.I.Ifetch |        1034      0.00%      0.00% |     7140417     33.51%     33.51% |     7040325     33.04%     66.55% |     7129100     33.45%    100.00%
system.noc_network.L1Cache_Controller.I.Ifetch::total     21310876                      
system.noc_network.L1Cache_Controller.I.Load |         353      0.02%      0.02% |      684599     33.17%     33.19% |      682232     33.06%     66.25% |      696584     33.75%    100.00%
system.noc_network.L1Cache_Controller.I.Load::total      2063768                      
system.noc_network.L1Cache_Controller.I.Replacement |          85      5.83%      5.83% |         440     30.18%     36.01% |         519     35.60%     71.60% |         414     28.40%    100.00%
system.noc_network.L1Cache_Controller.I.Replacement::total         1458                      
system.noc_network.L1Cache_Controller.I.Store |         313     21.05%     21.05% |         217     14.59%     35.64% |         218     14.66%     50.30% |         739     49.70%    100.00%
system.noc_network.L1Cache_Controller.I.Store::total         1487                      
system.noc_network.L1Cache_Controller.IM.Data |         313     21.05%     21.05% |         217     14.59%     35.64% |         218     14.66%     50.30% |         739     49.70%    100.00%
system.noc_network.L1Cache_Controller.IM.Data::total         1487                      
system.noc_network.L1Cache_Controller.IS.Data |        1387      0.01%      0.01% |     7825016     33.48%     33.48% |     7722557     33.04%     66.52% |     7825684     33.48%    100.00%
system.noc_network.L1Cache_Controller.IS.Data::total     23374644                      
system.noc_network.L1Cache_Controller.Ifetch |       34872      0.05%      0.05% |    21699385     30.83%     30.87% |    21699268     30.83%     61.70% |    26961141     38.30%    100.00%
system.noc_network.L1Cache_Controller.Ifetch::total     70394666                      
system.noc_network.L1Cache_Controller.Load |        5586      0.03%      0.03% |     6656186     31.78%     31.81% |     6656153     31.78%     63.59% |     7625911     36.41%    100.00%
system.noc_network.L1Cache_Controller.Load::total     20943836                      
system.noc_network.L1Cache_Controller.M.Fwd_GETX |         212      0.00%      0.00% |     7824749     33.49%     33.49% |     7722435     33.05%     66.54% |     7817449     33.46%    100.00%
system.noc_network.L1Cache_Controller.M.Fwd_GETX::total     23364845                      
system.noc_network.L1Cache_Controller.M.Ifetch |       33838      0.07%      0.07% |    14558968     29.66%     29.73% |    14658943     29.87%     59.60% |    19832041     40.40%    100.00%
system.noc_network.L1Cache_Controller.M.Ifetch::total     49083790                      
system.noc_network.L1Cache_Controller.M.Load |        5233      0.03%      0.03% |     5971587     31.63%     31.66% |     5973921     31.64%     63.30% |     6929327     36.70%    100.00%
system.noc_network.L1Cache_Controller.M.Load::total     18880068                      
system.noc_network.L1Cache_Controller.M.Replacement |        1233     11.57%     11.57% |         400      3.75%     15.32% |         271      2.54%     17.87% |        8752     82.13%    100.00%
system.noc_network.L1Cache_Controller.M.Replacement::total        10656                      
system.noc_network.L1Cache_Controller.M.Store |        5265      0.03%      0.03% |     5512670     32.01%     32.04% |     5512673     32.01%     64.06% |     6189392     35.94%    100.00%
system.noc_network.L1Cache_Controller.M.Store::total     17220000                      
system.noc_network.L1Cache_Controller.MI.Writeback_Ack |        1233     11.57%     11.57% |         400      3.75%     15.32% |         271      2.54%     17.87% |        8752     82.13%    100.00%
system.noc_network.L1Cache_Controller.MI.Writeback_Ack::total        10656                      
system.noc_network.L1Cache_Controller.Replacement |        1318     10.88%     10.88% |         840      6.93%     17.81% |         790      6.52%     24.34% |        9166     75.66%    100.00%
system.noc_network.L1Cache_Controller.Replacement::total        12114                      
system.noc_network.L1Cache_Controller.Store |        5578      0.03%      0.03% |     5512887     32.01%     32.04% |     5512891     32.01%     64.06% |     6190131     35.94%    100.00%
system.noc_network.L1Cache_Controller.Store::total     17221487                      
system.noc_network.L1Cache_Controller.Writeback_Ack |        1233     11.57%     11.57% |         400      3.75%     15.32% |         271      2.54%     17.87% |        8752     82.13%    100.00%
system.noc_network.L1Cache_Controller.Writeback_Ack::total        10656                      
system.noc_network.LD.Directory.miss_type_mach_latency_hist_seqr::bucket_size            1                      
system.noc_network.LD.Directory.miss_type_mach_latency_hist_seqr::max_bucket            9                      
system.noc_network.LD.Directory.miss_type_mach_latency_hist_seqr::samples         8493                      
system.noc_network.LD.Directory.miss_type_mach_latency_hist_seqr |        8493    100.00%    100.00% |           0      0.00%    100.00% |           0      0.00%    100.00% |           0      0.00%    100.00% |           0      0.00%    100.00% |           0      0.00%    100.00% |           0      0.00%    100.00% |           0      0.00%    100.00% |           0      0.00%    100.00% |           0      0.00%    100.00%
system.noc_network.LD.Directory.miss_type_mach_latency_hist_seqr::total         8493                      
system.noc_network.LD.L1Cache.miss_type_mach_latency_hist_seqr::bucket_size            1                      
system.noc_network.LD.L1Cache.miss_type_mach_latency_hist_seqr::max_bucket            9                      
system.noc_network.LD.L1Cache.miss_type_mach_latency_hist_seqr::samples      2055275                      
system.noc_network.LD.L1Cache.miss_type_mach_latency_hist_seqr |     2055275    100.00%    100.00% |           0      0.00%    100.00% |           0      0.00%    100.00% |           0      0.00%    100.00% |           0      0.00%    100.00% |           0      0.00%    100.00% |           0      0.00%    100.00% |           0      0.00%    100.00% |           0      0.00%    100.00% |           0      0.00%    100.00%
system.noc_network.LD.L1Cache.miss_type_mach_latency_hist_seqr::total      2055275                      
system.noc_network.LD.hit_latency_hist_seqr::bucket_size            1                      
system.noc_network.LD.hit_latency_hist_seqr::max_bucket            9                      
system.noc_network.LD.hit_latency_hist_seqr::samples     18880068                      
system.noc_network.LD.hit_latency_hist_seqr |    18880068    100.00%    100.00% |           0      0.00%    100.00% |           0      0.00%    100.00% |           0      0.00%    100.00% |           0      0.00%    100.00% |           0      0.00%    100.00% |           0      0.00%    100.00% |           0      0.00%    100.00% |           0      0.00%    100.00% |           0      0.00%    100.00%
system.noc_network.LD.hit_latency_hist_seqr::total     18880068                      
system.noc_network.LD.latency_hist_seqr::bucket_size            1                      
system.noc_network.LD.latency_hist_seqr::max_bucket            9                      
system.noc_network.LD.latency_hist_seqr::samples     20943836                      
system.noc_network.LD.latency_hist_seqr  |    20943836    100.00%    100.00% |           0      0.00%    100.00% |           0      0.00%    100.00% |           0      0.00%    100.00% |           0      0.00%    100.00% |           0      0.00%    100.00% |           0      0.00%    100.00% |           0      0.00%    100.00% |           0      0.00%    100.00% |           0      0.00%    100.00%
system.noc_network.LD.latency_hist_seqr::total     20943836                      
system.noc_network.LD.miss_latency_hist_seqr::bucket_size            1                      
system.noc_network.LD.miss_latency_hist_seqr::max_bucket            9                      
system.noc_network.LD.miss_latency_hist_seqr::samples      2063768                      
system.noc_network.LD.miss_latency_hist_seqr |     2063768    100.00%    100.00% |           0      0.00%    100.00% |           0      0.00%    100.00% |           0      0.00%    100.00% |           0      0.00%    100.00% |           0      0.00%    100.00% |           0      0.00%    100.00% |           0      0.00%    100.00% |           0      0.00%    100.00% |           0      0.00%    100.00%
system.noc_network.LD.miss_latency_hist_seqr::total      2063768                      
system.noc_network.Locked_RMW_Read.Directory.miss_type_mach_latency_hist_seqr::bucket_size            1                      
system.noc_network.Locked_RMW_Read.Directory.miss_type_mach_latency_hist_seqr::max_bucket            9                      
system.noc_network.Locked_RMW_Read.Directory.miss_type_mach_latency_hist_seqr::samples            5                      
system.noc_network.Locked_RMW_Read.Directory.miss_type_mach_latency_hist_seqr |           5    100.00%    100.00% |           0      0.00%    100.00% |           0      0.00%    100.00% |           0      0.00%    100.00% |           0      0.00%    100.00% |           0      0.00%    100.00% |           0      0.00%    100.00% |           0      0.00%    100.00% |           0      0.00%    100.00% |           0      0.00%    100.00%
system.noc_network.Locked_RMW_Read.Directory.miss_type_mach_latency_hist_seqr::total            5                      
system.noc_network.Locked_RMW_Read.L1Cache.miss_type_mach_latency_hist_seqr::bucket_size            1                      
system.noc_network.Locked_RMW_Read.L1Cache.miss_type_mach_latency_hist_seqr::max_bucket            9                      
system.noc_network.Locked_RMW_Read.L1Cache.miss_type_mach_latency_hist_seqr::samples           68                      
system.noc_network.Locked_RMW_Read.L1Cache.miss_type_mach_latency_hist_seqr |          68    100.00%    100.00% |           0      0.00%    100.00% |           0      0.00%    100.00% |           0      0.00%    100.00% |           0      0.00%    100.00% |           0      0.00%    100.00% |           0      0.00%    100.00% |           0      0.00%    100.00% |           0      0.00%    100.00% |           0      0.00%    100.00%
system.noc_network.Locked_RMW_Read.L1Cache.miss_type_mach_latency_hist_seqr::total           68                      
system.noc_network.Locked_RMW_Read.hit_latency_hist_seqr::bucket_size            1                      
system.noc_network.Locked_RMW_Read.hit_latency_hist_seqr::max_bucket            9                      
system.noc_network.Locked_RMW_Read.hit_latency_hist_seqr::samples          348                      
system.noc_network.Locked_RMW_Read.hit_latency_hist_seqr |         348    100.00%    100.00% |           0      0.00%    100.00% |           0      0.00%    100.00% |           0      0.00%    100.00% |           0      0.00%    100.00% |           0      0.00%    100.00% |           0      0.00%    100.00% |           0      0.00%    100.00% |           0      0.00%    100.00% |           0      0.00%    100.00%
system.noc_network.Locked_RMW_Read.hit_latency_hist_seqr::total          348                      
system.noc_network.Locked_RMW_Read.latency_hist_seqr::bucket_size            1                      
system.noc_network.Locked_RMW_Read.latency_hist_seqr::max_bucket            9                      
system.noc_network.Locked_RMW_Read.latency_hist_seqr::samples          421                      
system.noc_network.Locked_RMW_Read.latency_hist_seqr |         421    100.00%    100.00% |           0      0.00%    100.00% |           0      0.00%    100.00% |           0      0.00%    100.00% |           0      0.00%    100.00% |           0      0.00%    100.00% |           0      0.00%    100.00% |           0      0.00%    100.00% |           0      0.00%    100.00% |           0      0.00%    100.00%
system.noc_network.Locked_RMW_Read.latency_hist_seqr::total          421                      
system.noc_network.Locked_RMW_Read.miss_latency_hist_seqr::bucket_size            1                      
system.noc_network.Locked_RMW_Read.miss_latency_hist_seqr::max_bucket            9                      
system.noc_network.Locked_RMW_Read.miss_latency_hist_seqr::samples           73                      
system.noc_network.Locked_RMW_Read.miss_latency_hist_seqr |          73    100.00%    100.00% |           0      0.00%    100.00% |           0      0.00%    100.00% |           0      0.00%    100.00% |           0      0.00%    100.00% |           0      0.00%    100.00% |           0      0.00%    100.00% |           0      0.00%    100.00% |           0      0.00%    100.00% |           0      0.00%    100.00%
system.noc_network.Locked_RMW_Read.miss_latency_hist_seqr::total           73                      
system.noc_network.Locked_RMW_Write.hit_latency_hist_seqr::bucket_size            1                      
system.noc_network.Locked_RMW_Write.hit_latency_hist_seqr::max_bucket            9                      
system.noc_network.Locked_RMW_Write.hit_latency_hist_seqr::samples          421                      
system.noc_network.Locked_RMW_Write.hit_latency_hist_seqr |         421    100.00%    100.00% |           0      0.00%    100.00% |           0      0.00%    100.00% |           0      0.00%    100.00% |           0      0.00%    100.00% |           0      0.00%    100.00% |           0      0.00%    100.00% |           0      0.00%    100.00% |           0      0.00%    100.00% |           0      0.00%    100.00%
system.noc_network.Locked_RMW_Write.hit_latency_hist_seqr::total          421                      
system.noc_network.Locked_RMW_Write.latency_hist_seqr::bucket_size            1                      
system.noc_network.Locked_RMW_Write.latency_hist_seqr::max_bucket            9                      
system.noc_network.Locked_RMW_Write.latency_hist_seqr::samples          421                      
system.noc_network.Locked_RMW_Write.latency_hist_seqr |         421    100.00%    100.00% |           0      0.00%    100.00% |           0      0.00%    100.00% |           0      0.00%    100.00% |           0      0.00%    100.00% |           0      0.00%    100.00% |           0      0.00%    100.00% |           0      0.00%    100.00% |           0      0.00%    100.00% |           0      0.00%    100.00%
system.noc_network.Locked_RMW_Write.latency_hist_seqr::total          421                      
system.noc_network.RMW_Read.Directory.miss_type_mach_latency_hist_seqr::bucket_size            1                      
system.noc_network.RMW_Read.Directory.miss_type_mach_latency_hist_seqr::max_bucket            9                      
system.noc_network.RMW_Read.Directory.miss_type_mach_latency_hist_seqr::samples            7                      
system.noc_network.RMW_Read.Directory.miss_type_mach_latency_hist_seqr |           7    100.00%    100.00% |           0      0.00%    100.00% |           0      0.00%    100.00% |           0      0.00%    100.00% |           0      0.00%    100.00% |           0      0.00%    100.00% |           0      0.00%    100.00% |           0      0.00%    100.00% |           0      0.00%    100.00% |           0      0.00%    100.00%
system.noc_network.RMW_Read.Directory.miss_type_mach_latency_hist_seqr::total            7                      
system.noc_network.RMW_Read.L1Cache.miss_type_mach_latency_hist_seqr::bucket_size            1                      
system.noc_network.RMW_Read.L1Cache.miss_type_mach_latency_hist_seqr::max_bucket            9                      
system.noc_network.RMW_Read.L1Cache.miss_type_mach_latency_hist_seqr::samples            3                      
system.noc_network.RMW_Read.L1Cache.miss_type_mach_latency_hist_seqr |           3    100.00%    100.00% |           0      0.00%    100.00% |           0      0.00%    100.00% |           0      0.00%    100.00% |           0      0.00%    100.00% |           0      0.00%    100.00% |           0      0.00%    100.00% |           0      0.00%    100.00% |           0      0.00%    100.00% |           0      0.00%    100.00%
system.noc_network.RMW_Read.L1Cache.miss_type_mach_latency_hist_seqr::total            3                      
system.noc_network.RMW_Read.hit_latency_hist_seqr::bucket_size            1                      
system.noc_network.RMW_Read.hit_latency_hist_seqr::max_bucket            9                      
system.noc_network.RMW_Read.hit_latency_hist_seqr::samples      5100481                      
system.noc_network.RMW_Read.hit_latency_hist_seqr |     5100481    100.00%    100.00% |           0      0.00%    100.00% |           0      0.00%    100.00% |           0      0.00%    100.00% |           0      0.00%    100.00% |           0      0.00%    100.00% |           0      0.00%    100.00% |           0      0.00%    100.00% |           0      0.00%    100.00% |           0      0.00%    100.00%
system.noc_network.RMW_Read.hit_latency_hist_seqr::total      5100481                      
system.noc_network.RMW_Read.latency_hist_seqr::bucket_size            1                      
system.noc_network.RMW_Read.latency_hist_seqr::max_bucket            9                      
system.noc_network.RMW_Read.latency_hist_seqr::samples      5100491                      
system.noc_network.RMW_Read.latency_hist_seqr |     5100491    100.00%    100.00% |           0      0.00%    100.00% |           0      0.00%    100.00% |           0      0.00%    100.00% |           0      0.00%    100.00% |           0      0.00%    100.00% |           0      0.00%    100.00% |           0      0.00%    100.00% |           0      0.00%    100.00% |           0      0.00%    100.00%
system.noc_network.RMW_Read.latency_hist_seqr::total      5100491                      
system.noc_network.RMW_Read.miss_latency_hist_seqr::bucket_size            1                      
system.noc_network.RMW_Read.miss_latency_hist_seqr::max_bucket            9                      
system.noc_network.RMW_Read.miss_latency_hist_seqr::samples           10                      
system.noc_network.RMW_Read.miss_latency_hist_seqr |          10    100.00%    100.00% |           0      0.00%    100.00% |           0      0.00%    100.00% |           0      0.00%    100.00% |           0      0.00%    100.00% |           0      0.00%    100.00% |           0      0.00%    100.00% |           0      0.00%    100.00% |           0      0.00%    100.00% |           0      0.00%    100.00%
system.noc_network.RMW_Read.miss_latency_hist_seqr::total           10                      
system.noc_network.ST.Directory.miss_type_mach_latency_hist_seqr::bucket_size            1                      
system.noc_network.ST.Directory.miss_type_mach_latency_hist_seqr::max_bucket            9                      
system.noc_network.ST.Directory.miss_type_mach_latency_hist_seqr::samples         1192                      
system.noc_network.ST.Directory.miss_type_mach_latency_hist_seqr |        1192    100.00%    100.00% |           0      0.00%    100.00% |           0      0.00%    100.00% |           0      0.00%    100.00% |           0      0.00%    100.00% |           0      0.00%    100.00% |           0      0.00%    100.00% |           0      0.00%    100.00% |           0      0.00%    100.00% |           0      0.00%    100.00%
system.noc_network.ST.Directory.miss_type_mach_latency_hist_seqr::total         1192                      
system.noc_network.ST.L1Cache.miss_type_mach_latency_hist_seqr::bucket_size            1                      
system.noc_network.ST.L1Cache.miss_type_mach_latency_hist_seqr::max_bucket            9                      
system.noc_network.ST.L1Cache.miss_type_mach_latency_hist_seqr::samples          212                      
system.noc_network.ST.L1Cache.miss_type_mach_latency_hist_seqr |         212    100.00%    100.00% |           0      0.00%    100.00% |           0      0.00%    100.00% |           0      0.00%    100.00% |           0      0.00%    100.00% |           0      0.00%    100.00% |           0      0.00%    100.00% |           0      0.00%    100.00% |           0      0.00%    100.00% |           0      0.00%    100.00%
system.noc_network.ST.L1Cache.miss_type_mach_latency_hist_seqr::total          212                      
system.noc_network.ST.hit_latency_hist_seqr::bucket_size            1                      
system.noc_network.ST.hit_latency_hist_seqr::max_bucket            9                      
system.noc_network.ST.hit_latency_hist_seqr::samples     12118750                      
system.noc_network.ST.hit_latency_hist_seqr |    12118750    100.00%    100.00% |           0      0.00%    100.00% |           0      0.00%    100.00% |           0      0.00%    100.00% |           0      0.00%    100.00% |           0      0.00%    100.00% |           0      0.00%    100.00% |           0      0.00%    100.00% |           0      0.00%    100.00% |           0      0.00%    100.00%
system.noc_network.ST.hit_latency_hist_seqr::total     12118750                      
system.noc_network.ST.latency_hist_seqr::bucket_size            1                      
system.noc_network.ST.latency_hist_seqr::max_bucket            9                      
system.noc_network.ST.latency_hist_seqr::samples     12120154                      
system.noc_network.ST.latency_hist_seqr  |    12120154    100.00%    100.00% |           0      0.00%    100.00% |           0      0.00%    100.00% |           0      0.00%    100.00% |           0      0.00%    100.00% |           0      0.00%    100.00% |           0      0.00%    100.00% |           0      0.00%    100.00% |           0      0.00%    100.00% |           0      0.00%    100.00%
system.noc_network.ST.latency_hist_seqr::total     12120154                      
system.noc_network.ST.miss_latency_hist_seqr::bucket_size            1                      
system.noc_network.ST.miss_latency_hist_seqr::max_bucket            9                      
system.noc_network.ST.miss_latency_hist_seqr::samples         1404                      
system.noc_network.ST.miss_latency_hist_seqr |        1404    100.00%    100.00% |           0      0.00%    100.00% |           0      0.00%    100.00% |           0      0.00%    100.00% |           0      0.00%    100.00% |           0      0.00%    100.00% |           0      0.00%    100.00% |           0      0.00%    100.00% |           0      0.00%    100.00% |           0      0.00%    100.00%
system.noc_network.ST.miss_latency_hist_seqr::total         1404                      
system.noc_network.delayHist::bucket_size            4                       # delay histogram for all message
system.noc_network.delayHist::max_bucket           39                       # delay histogram for all message
system.noc_network.delayHist::samples        46751632                       # delay histogram for all message
system.noc_network.delayHist::mean          13.760185                       # delay histogram for all message
system.noc_network.delayHist::gmean         12.778169                       # delay histogram for all message
system.noc_network.delayHist::stdev          5.590758                       # delay histogram for all message
system.noc_network.delayHist             |           0      0.00%      0.00% |     1349017      2.89%      2.89% |    24535840     52.48%     55.37% |     8416754     18.00%     73.37% |      761759      1.63%     75.00% |     7997080     17.11%     92.10% |     3008428      6.43%     98.54% |      416989      0.89%     99.43% |      265765      0.57%    100.00% |           0      0.00%    100.00% # delay histogram for all message
system.noc_network.delayHist::total          46751632                       # delay histogram for all message
system.noc_network.delayVCHist.vnet_1::bucket_size            2                       # delay histogram for vnet_1
system.noc_network.delayVCHist.vnet_1::max_bucket           19                       # delay histogram for vnet_1
system.noc_network.delayVCHist.vnet_1::samples     23376131                       # delay histogram for vnet_1
system.noc_network.delayVCHist.vnet_1::mean    11.756575                       # delay histogram for vnet_1
system.noc_network.delayVCHist.vnet_1::gmean    11.708649                       # delay histogram for vnet_1
system.noc_network.delayVCHist.vnet_1::stdev     1.102794                       # delay histogram for vnet_1
system.noc_network.delayVCHist.vnet_1    |           0      0.00%      0.00% |           0      0.00%      0.00% |           0      0.00%      0.00% |           0      0.00%      0.00% |           0      0.00%      0.00% |    15076385     64.49%     64.49% |     7783244     33.30%     97.79% |      348373      1.49%     99.28% |      122849      0.53%     99.81% |       45280      0.19%    100.00% # delay histogram for vnet_1
system.noc_network.delayVCHist.vnet_1::total     23376131                       # delay histogram for vnet_1
system.noc_network.delayVCHist.vnet_2::bucket_size            4                       # delay histogram for vnet_2
system.noc_network.delayVCHist.vnet_2::max_bucket           39                       # delay histogram for vnet_2
system.noc_network.delayVCHist.vnet_2::samples     23375501                       # delay histogram for vnet_2
system.noc_network.delayVCHist.vnet_2::mean    15.763850                       # delay histogram for vnet_2
system.noc_network.delayVCHist.vnet_2::gmean    13.945416                       # delay histogram for vnet_2
system.noc_network.delayVCHist.vnet_2::stdev     7.298532                       # delay histogram for vnet_2
system.noc_network.delayVCHist.vnet_2    |           0      0.00%      0.00% |     1349017      5.77%      5.77% |     9459455     40.47%     46.24% |      285137      1.22%     47.46% |      593630      2.54%     50.00% |     7997080     34.21%     84.21% |     3008428     12.87%     97.08% |      416989      1.78%     98.86% |      265765      1.14%    100.00% |           0      0.00%    100.00% # delay histogram for vnet_2
system.noc_network.delayVCHist.vnet_2::total     23375501                       # delay histogram for vnet_2
system.noc_network.hit_latency_hist_seqr::bucket_size            1                      
system.noc_network.hit_latency_hist_seqr::max_bucket            9                      
system.noc_network.hit_latency_hist_seqr::samples     85183858                      
system.noc_network.hit_latency_hist_seqr |    85183858    100.00%    100.00% |           0      0.00%    100.00% |           0      0.00%    100.00% |           0      0.00%    100.00% |           0      0.00%    100.00% |           0      0.00%    100.00% |           0      0.00%    100.00% |           0      0.00%    100.00% |           0      0.00%    100.00% |           0      0.00%    100.00%
system.noc_network.hit_latency_hist_seqr::total     85183858                      
system.noc_network.latency_hist_seqr::bucket_size            8                      
system.noc_network.latency_hist_seqr::max_bucket           79                      
system.noc_network.latency_hist_seqr::samples    108559989                      
system.noc_network.latency_hist_seqr::mean     0.000001                      
system.noc_network.latency_hist_seqr::stdev     0.006142                      
system.noc_network.latency_hist_seqr     |   108559988    100.00%    100.00% |           0      0.00%    100.00% |           0      0.00%    100.00% |           0      0.00%    100.00% |           0      0.00%    100.00% |           0      0.00%    100.00% |           0      0.00%    100.00% |           0      0.00%    100.00% |           1      0.00%    100.00% |           0      0.00%    100.00%
system.noc_network.latency_hist_seqr::total    108559989                      
system.noc_network.miss_latency_hist_seqr::bucket_size            8                      
system.noc_network.miss_latency_hist_seqr::max_bucket           79                      
[...]
system.noc_network.socket_controllers3.mem_ctrl.rdPerTurnAround::stdev    78.156010                       # Reads before turning the bus around for writes
system.noc_network.socket_controllers3.mem_ctrl.rdPerTurnAround::0-7           25     92.59%     92.59% # Reads before turning the bus around for writes
system.noc_network.socket_controllers3.mem_ctrl.rdPerTurnAround::232-239            1      3.70%     96.30% # Reads before turning the bus around for writes
system.noc_network.socket_controllers3.mem_ctrl.rdPerTurnAround::336-343            1      3.70%    100.00% # Reads before turning the bus around for writes
system.noc_network.socket_controllers3.mem_ctrl.rdPerTurnAround::total           27                       # Reads before turning the bus around for writes
system.noc_network.socket_controllers3.mem_ctrl.wrPerTurnAround::samples           27                       # Writes before turning the bus around for reads
system.noc_network.socket_controllers3.mem_ctrl.wrPerTurnAround::mean           18                       # Writes before turning the bus around for reads
system.noc_network.socket_controllers3.mem_ctrl.wrPerTurnAround::gmean    18.000000                       # Writes before turning the bus around for reads
system.noc_network.socket_controllers3.mem_ctrl.wrPerTurnAround::18           27    100.00%    100.00% # Writes before turning the bus around for reads
system.noc_network.socket_controllers3.mem_ctrl.wrPerTurnAround::total           27                       # Writes before turning the bus around for reads
system.noc_network.socket_controllers3.mem_ctrl.bytesReadWrQ         7872                       # Total number of bytes read from write queue
system.noc_network.socket_controllers3.mem_ctrl.bytesReadSys        46464                       # Total read bytes from the system interface side
system.noc_network.socket_controllers3.mem_ctrl.bytesWrittenSys        38144                       # Total written bytes from the system interface side
system.noc_network.socket_controllers3.mem_ctrl.avgRdBWSys         0.08                       # Average system read bandwidth in MiByte/s
system.noc_network.socket_controllers3.mem_ctrl.avgWrBWSys         0.06                       # Average system write bandwidth in MiByte/s
system.noc_network.socket_controllers3.mem_ctrl.totGap 589884067000                       # Total gap between requests
system.noc_network.socket_controllers3.mem_ctrl.avgGap 446205799.55                       # Average gap between requests
system.noc_network.socket_controllers3.mem_ctrl.requestorReadBytes::.noc_network.socket_controllers3        38592                       # Per-requestor bytes read from memory
system.noc_network.socket_controllers3.mem_ctrl.requestorWriteBytes::.noc_network.socket_controllers3        31104                       # Per-requestor bytes write to memory
system.noc_network.socket_controllers3.mem_ctrl.requestorReadRate::.noc_network.socket_controllers3 65421.288116649695                       # Per-requestor bytes read from memory rate (Bytes/sec)
system.noc_network.socket_controllers3.mem_ctrl.requestorWriteRate::.noc_network.socket_controllers3 52727.605347747514                       # Per-requestor bytes write to memory rate (Bytes/sec)
system.noc_network.socket_controllers3.mem_ctrl.requestorReadAccesses::.noc_network.socket_controllers3          726                       # Per-requestor read serviced memory accesses
system.noc_network.socket_controllers3.mem_ctrl.requestorWriteAccesses::.noc_network.socket_controllers3          596                       # Per-requestor write serviced memory accesses
system.noc_network.socket_controllers3.mem_ctrl.requestorReadTotalLat::.noc_network.socket_controllers3     11111704                       # Per-requestor read total memory access latency
system.noc_network.socket_controllers3.mem_ctrl.requestorWriteTotalLat::.noc_network.socket_controllers3 33659001804604                       # Per-requestor write total memory access latency
system.noc_network.socket_controllers3.mem_ctrl.requestorReadAvgLat::.noc_network.socket_controllers3     15305.38                       # Per-requestor read average memory access latency
system.noc_network.socket_controllers3.mem_ctrl.requestorWriteAvgLat::.noc_network.socket_controllers3 56474835242.62                       # Per-requestor write average memory access latency
system.noc_network.socket_controllers3.mem_ctrl.nvm.bytes_read::.noc_network.socket_controllers3        46464                       # Number of bytes read from this memory
system.noc_network.socket_controllers3.mem_ctrl.nvm.bytes_read::total        46464                       # Number of bytes read from this memory
system.noc_network.socket_controllers3.mem_ctrl.nvm.bytes_written::.noc_network.socket_controllers3        38144                       # Number of bytes written to this memory
system.noc_network.socket_controllers3.mem_ctrl.nvm.bytes_written::total        38144                       # Number of bytes written to this memory
system.noc_network.socket_controllers3.mem_ctrl.nvm.num_reads::.noc_network.socket_controllers3          726                       # Number of read requests responded to by this memory
system.noc_network.socket_controllers3.mem_ctrl.nvm.num_reads::total          726                       # Number of read requests responded to by this memory
system.noc_network.socket_controllers3.mem_ctrl.nvm.num_writes::.noc_network.socket_controllers3          596                       # Number of write requests responded to by this memory
system.noc_network.socket_controllers3.mem_ctrl.nvm.num_writes::total          596                       # Number of write requests responded to by this memory
system.noc_network.socket_controllers3.mem_ctrl.nvm.bw_read::.noc_network.socket_controllers3        78766                       # Total read bandwidth from this memory (bytes/s)
system.noc_network.socket_controllers3.mem_ctrl.nvm.bw_read::total        78766                       # Total read bandwidth from this memory (bytes/s)
system.noc_network.socket_controllers3.mem_ctrl.nvm.bw_write::.noc_network.socket_controllers3        64662                       # Write bandwidth from this memory (bytes/s)
system.noc_network.socket_controllers3.mem_ctrl.nvm.bw_write::total        64662                       # Write bandwidth from this memory (bytes/s)
system.noc_network.socket_controllers3.mem_ctrl.nvm.bw_total::.noc_network.socket_controllers3       143428                       # Total bandwidth to/from this memory (bytes/s)
system.noc_network.socket_controllers3.mem_ctrl.nvm.bw_total::total       143428                       # Total bandwidth to/from this memory (bytes/s)
system.noc_network.socket_controllers3.mem_ctrl.nvm.readBursts          603                       # Number of NVM read bursts
system.noc_network.socket_controllers3.mem_ctrl.nvm.writeBursts          486                       # Number of NVM write bursts
system.noc_network.socket_controllers3.mem_ctrl.nvm.perBankRdBursts::0           36                       # Per bank write bursts
system.noc_network.socket_controllers3.mem_ctrl.nvm.perBankRdBursts::1           38                       # Per bank write bursts
system.noc_network.socket_controllers3.mem_ctrl.nvm.perBankRdBursts::2           43                       # Per bank write bursts
system.noc_network.socket_controllers3.mem_ctrl.nvm.perBankRdBursts::3           42                       # Per bank write bursts
system.noc_network.socket_controllers3.mem_ctrl.nvm.perBankRdBursts::4           40                       # Per bank write bursts
system.noc_network.socket_controllers3.mem_ctrl.nvm.perBankRdBursts::5           44                       # Per bank write bursts
system.noc_network.socket_controllers3.mem_ctrl.nvm.perBankRdBursts::6           41                       # Per bank write bursts
system.noc_network.socket_controllers3.mem_ctrl.nvm.perBankRdBursts::7           36                       # Per bank write bursts
system.noc_network.socket_controllers3.mem_ctrl.nvm.perBankRdBursts::8           50                       # Per bank write bursts
system.noc_network.socket_controllers3.mem_ctrl.nvm.perBankRdBursts::9           39                       # Per bank write bursts
system.noc_network.socket_controllers3.mem_ctrl.nvm.perBankRdBursts::10           41                       # Per bank write bursts
system.noc_network.socket_controllers3.mem_ctrl.nvm.perBankRdBursts::11           37                       # Per bank write bursts
system.noc_network.socket_controllers3.mem_ctrl.nvm.perBankRdBursts::12           31                       # Per bank write bursts
system.noc_network.socket_controllers3.mem_ctrl.nvm.perBankRdBursts::13           33                       # Per bank write bursts
system.noc_network.socket_controllers3.mem_ctrl.nvm.perBankRdBursts::14           26                       # Per bank write bursts
system.noc_network.socket_controllers3.mem_ctrl.nvm.perBankRdBursts::15           26                       # Per bank write bursts
system.noc_network.socket_controllers3.mem_ctrl.nvm.perBankWrBursts::0           29                       # Per bank write bursts
system.noc_network.socket_controllers3.mem_ctrl.nvm.perBankWrBursts::1           34                       # Per bank write bursts
system.noc_network.socket_controllers3.mem_ctrl.nvm.perBankWrBursts::2           34                       # Per bank write bursts
system.noc_network.socket_controllers3.mem_ctrl.nvm.perBankWrBursts::3           27                       # Per bank write bursts
system.noc_network.socket_controllers3.mem_ctrl.nvm.perBankWrBursts::4           30                       # Per bank write bursts
system.noc_network.socket_controllers3.mem_ctrl.nvm.perBankWrBursts::5           45                       # Per bank write bursts
system.noc_network.socket_controllers3.mem_ctrl.nvm.perBankWrBursts::6           34                       # Per bank write bursts
system.noc_network.socket_controllers3.mem_ctrl.nvm.perBankWrBursts::7           33                       # Per bank write bursts
system.noc_network.socket_controllers3.mem_ctrl.nvm.perBankWrBursts::8           35                       # Per bank write bursts
system.noc_network.socket_controllers3.mem_ctrl.nvm.perBankWrBursts::9           31                       # Per bank write bursts
system.noc_network.socket_controllers3.mem_ctrl.nvm.perBankWrBursts::10           25                       # Per bank write bursts
system.noc_network.socket_controllers3.mem_ctrl.nvm.perBankWrBursts::11           27                       # Per bank write bursts
system.noc_network.socket_controllers3.mem_ctrl.nvm.perBankWrBursts::12           21                       # Per bank write bursts
system.noc_network.socket_controllers3.mem_ctrl.nvm.perBankWrBursts::13           31                       # Per bank write bursts
system.noc_network.socket_controllers3.mem_ctrl.nvm.perBankWrBursts::14           23                       # Per bank write bursts
system.noc_network.socket_controllers3.mem_ctrl.nvm.perBankWrBursts::15           27                       # Per bank write bursts
system.noc_network.socket_controllers3.mem_ctrl.nvm.totQLat       564028                       # Total ticks spent queuing
system.noc_network.socket_controllers3.mem_ctrl.nvm.totBusLat      2009196                       # Total ticks spent in databus transfers
system.noc_network.socket_controllers3.mem_ctrl.nvm.totMemAccLat     11111704                       # Total ticks spent from burst creation until serviced by the NVM
system.noc_network.socket_controllers3.mem_ctrl.nvm.avgQLat       935.37                       # Average queueing delay per NVM burst
system.noc_network.socket_controllers3.mem_ctrl.nvm.avgBusLat      3332.00                       # Average bus latency per NVM burst
system.noc_network.socket_controllers3.mem_ctrl.nvm.avgMemAccLat     18427.37                       # Average memory access latency per NVM burst
system.noc_network.socket_controllers3.mem_ctrl.nvm.bytesRead        38592                       # Total number of bytes read from DRAM
system.noc_network.socket_controllers3.mem_ctrl.nvm.bytesWritten        31104                       # Total number of bytes written to DRAM
system.noc_network.socket_controllers3.mem_ctrl.nvm.avgRdBW         0.07                       # Average DRAM read bandwidth in MiBytes/s
system.noc_network.socket_controllers3.mem_ctrl.nvm.avgWrBW         0.05                       # Average DRAM write bandwidth in MiBytes/s
system.noc_network.socket_controllers3.mem_ctrl.nvm.peakBW     19207.00                       # Theoretical peak bandwidth in MiByte/s
system.noc_network.socket_controllers3.mem_ctrl.nvm.busUtil         0.00                       # NVM Data bus utilization in percentage
system.noc_network.socket_controllers3.mem_ctrl.nvm.busUtilRead         0.00                       # NVM Data bus read utilization in percentage
system.noc_network.socket_controllers3.mem_ctrl.nvm.busUtilWrite         0.00                       # NVM Data bus write utilization in percentage
system.noc_network.socket_controllers3.mem_ctrl.nvm.pendingReads::samples          603                       # Reads issued to NVM for which data has not been transferred
system.noc_network.socket_controllers3.mem_ctrl.nvm.pendingReads::mean     0.004975                       # Reads issued to NVM for which data has not been transferred
system.noc_network.socket_controllers3.mem_ctrl.nvm.pendingReads::stdev     0.070417                       # Reads issued to NVM for which data has not been transferred
system.noc_network.socket_controllers3.mem_ctrl.nvm.pendingReads::0          600     99.50%     99.50% # Reads issued to NVM for which data has not been transferred
system.noc_network.socket_controllers3.mem_ctrl.nvm.pendingReads::1            3      0.50%    100.00% # Reads issued to NVM for which data has not been transferred
system.noc_network.socket_controllers3.mem_ctrl.nvm.pendingReads::total          603                       # Reads issued to NVM for which data has not been transferred
system.noc_network.socket_controllers3.mem_ctrl.nvm.pendingWrites::samples          486                       # Number of outstanding writes to NVM
system.noc_network.socket_controllers3.mem_ctrl.nvm.pendingWrites::mean     7.658436                       # Number of outstanding writes to NVM
system.noc_network.socket_controllers3.mem_ctrl.nvm.pendingWrites::gmean     6.536958                       # Number of outstanding writes to NVM
system.noc_network.socket_controllers3.mem_ctrl.nvm.pendingWrites::stdev     3.250155                       # Number of outstanding writes to NVM
system.noc_network.socket_controllers3.mem_ctrl.nvm.pendingWrites::1           27      5.56%      5.56% # Number of outstanding writes to NVM
system.noc_network.socket_controllers3.mem_ctrl.nvm.pendingWrites::2           27      5.56%     11.11% # Number of outstanding writes to NVM
system.noc_network.socket_controllers3.mem_ctrl.nvm.pendingWrites::3           27      5.56%     16.67% # Number of outstanding writes to NVM
system.noc_network.socket_controllers3.mem_ctrl.nvm.pendingWrites::4           27      5.56%     22.22% # Number of outstanding writes to NVM
system.noc_network.socket_controllers3.mem_ctrl.nvm.pendingWrites::5           27      5.56%     27.78% # Number of outstanding writes to NVM
system.noc_network.socket_controllers3.mem_ctrl.nvm.pendingWrites::6           27      5.56%     33.33% # Number of outstanding writes to NVM
system.noc_network.socket_controllers3.mem_ctrl.nvm.pendingWrites::7           27      5.56%     38.89% # Number of outstanding writes to NVM
system.noc_network.socket_controllers3.mem_ctrl.nvm.pendingWrites::8           27      5.56%     44.44% # Number of outstanding writes to NVM
system.noc_network.socket_controllers3.mem_ctrl.nvm.pendingWrites::9           27      5.56%     50.00% # Number of outstanding writes to NVM
system.noc_network.socket_controllers3.mem_ctrl.nvm.pendingWrites::10          173     35.60%     85.60% # Number of outstanding writes to NVM
system.noc_network.socket_controllers3.mem_ctrl.nvm.pendingWrites::11           64     13.17%     98.77% # Number of outstanding writes to NVM
system.noc_network.socket_controllers3.mem_ctrl.nvm.pendingWrites::12            5      1.03%     99.79% # Number of outstanding writes to NVM
system.noc_network.socket_controllers3.mem_ctrl.nvm.pendingWrites::13            1      0.21%    100.00% # Number of outstanding writes to NVM
system.noc_network.socket_controllers3.mem_ctrl.nvm.pendingWrites::total          486                       # Number of outstanding writes to NVM
system.noc_network.socket_controllers3.mem_ctrl.nvm.bytesPerBank::samples          577                       # Bytes read within a bank before loading new bank
system.noc_network.socket_controllers3.mem_ctrl.nvm.bytesPerBank::mean   119.902946                       # Bytes read within a bank before loading new bank
system.noc_network.socket_controllers3.mem_ctrl.nvm.bytesPerBank::gmean   102.595435                       # Bytes read within a bank before loading new bank
system.noc_network.socket_controllers3.mem_ctrl.nvm.bytesPerBank::stdev    71.043739                       # Bytes read within a bank before loading new bank
system.noc_network.socket_controllers3.mem_ctrl.nvm.bytesPerBank::64-65          304     52.69%     52.69% # Bytes read within a bank before loading new bank
system.noc_network.socket_controllers3.mem_ctrl.nvm.bytesPerBank::128-129          130     22.53%     75.22% # Bytes read within a bank before loading new bank
system.noc_network.socket_controllers3.mem_ctrl.nvm.bytesPerBank::192-193           58     10.05%     85.27% # Bytes read within a bank before loading new bank
system.noc_network.socket_controllers3.mem_ctrl.nvm.bytesPerBank::256-257           83     14.38%     99.65% # Bytes read within a bank before loading new bank
system.noc_network.socket_controllers3.mem_ctrl.nvm.bytesPerBank::320-321            1      0.17%     99.83% # Bytes read within a bank before loading new bank
system.noc_network.socket_controllers3.mem_ctrl.nvm.bytesPerBank::384-385            1      0.17%    100.00% # Bytes read within a bank before loading new bank
system.noc_network.socket_controllers3.mem_ctrl.nvm.bytesPerBank::total          577                       # Bytes read within a bank before loading new bank
system.noc_network.socket_controllers3.mem_ctrl.nvm.power_state.pwrStateResidencyTicks::UNDEFINED 589899727000                       # Cumulative time (in ticks) in various power states
system.noc_network.socket_controllers3.mem_ctrl.power_state.pwrStateResidencyTicks::UNDEFINED 589899727000                       # Cumulative time (in ticks) in various power states
system.noc_network.socket_controllers3.power_state.pwrStateResidencyTicks::UNDEFINED 589899727000                       # Cumulative time (in ticks) in various power states
system.noc_network.socket_controllers4.power_state.pwrStateResidencyTicks::UNDEFINED 589899727000                       # Cumulative time (in ticks) in various power states
system.noc_network.socket_controllers4.sequencer.power_state.pwrStateResidencyTicks::UNDEFINED 589899727000                       # Cumulative time (in ticks) in various power states
system.noc_network.socket_controllers5.power_state.pwrStateResidencyTicks::UNDEFINED 589899727000                       # Cumulative time (in ticks) in various power states
system.noc_network.socket_controllers5.sequencer.power_state.pwrStateResidencyTicks::UNDEFINED 589899727000                       # Cumulative time (in ticks) in various power states
system.noc_network.sys_port_proxy.power_state.pwrStateResidencyTicks::UNDEFINED 589899727000                       # Cumulative time (in ticks) in various power states
system.voltage_domain.voltage                       1                       # Voltage in Volts

---------- End Simulation Statistics   ----------
