
---------- Begin Simulation Statistics ----------
final_tick                                13416095000                       # Number of ticks from beginning of simulation (restored from checkpoints and never reset)
host_inst_rate                                 234642                       # Simulator instruction rate (inst/s)
host_mem_usage                                1403452                       # Number of bytes of host memory used
host_op_rate                                   431451                       # Simulator op (including micro ops) rate (op/s)
host_seconds                                    52.75                       # Real time elapsed on the host
host_tick_rate                              254355679                       # Simulator tick rate (ticks/s)
sim_freq                                 1000000000000                       # Frequency of simulated ticks
sim_insts                                    12376256                       # Number of instructions simulated
sim_ops                                      22757068                       # Number of ops (including micro ops) simulated
sim_seconds                                  0.013416                       # Number of seconds simulated
sim_ticks                                 13416095000                       # Number of ticks simulated
system.cpu0.Branches                           597868                       # Number of branches fetched
system.cpu0.committedInsts                    3094064                       # Number of instructions committed
system.cpu0.committedOps                      5689267                       # Number of ops (including micro ops) committed
system.cpu0.idle_fraction                    0.019893                       # Percentage of idle cycles
system.cpu0.not_idle_fraction                0.980107                       # Percentage of non-idle cycles
system.cpu0.numCycles                        13149209                       # number of cpu cycles simulated
system.cpu0.numWorkItemsCompleted                   0                       # number of work items this cpu completed
system.cpu0.numWorkItemsStarted                     0                       # number of work items this cpu started
system.cpu0.num_busy_cycles              12887632.154721                       # Number of busy cycles
system.cpu0.num_cc_register_reads             2791531                       # number of times the CC registers were read
system.cpu0.num_cc_register_writes            1722021                       # number of times the CC registers were written
system.cpu0.num_conditional_control_insts       428621                       # number of instructions that are conditional controls
system.cpu0.num_fp_alu_accesses                459095                       # Number of float alu accesses
system.cpu0.num_fp_insts                       459095                       # number of float instructions
system.cpu0.num_fp_register_reads              571186                       # number of times the floating registers were read
system.cpu0.num_fp_register_writes             387232                       # number of times the floating registers were written
system.cpu0.num_func_calls                      99742                       # number of times a function call or return occured
system.cpu0.num_idle_cycles              261576.845279                       # Number of idle cycles
system.cpu0.num_int_alu_accesses              5323823                       # Number of integer alu accesses
system.cpu0.num_int_insts                     5323823                       # number of integer instructions
system.cpu0.num_int_register_reads           10623046                       # number of times the integer registers were read
system.cpu0.num_int_register_writes           4264619                       # number of times the integer registers were written
system.cpu0.num_load_insts                     807081                       # Number of load instructions
system.cpu0.num_mem_refs                      1256359                       # number of memory refs
system.cpu0.num_store_insts                    449278                       # Number of store instructions
system.cpu0.num_vec_alu_accesses                    0                       # Number of vector alu accesses
system.cpu0.num_vec_insts                           0                       # number of vector instructions
system.cpu0.num_vec_register_reads                  0                       # number of times the vector registers were read
system.cpu0.num_vec_register_writes                 0                       # number of times the vector registers were written
system.cpu0.op_class::No_OpClass                79275      1.39%      1.39% # Class of executed instruction
system.cpu0.op_class::IntAlu                  4038502     70.98%     72.38% # Class of executed instruction
system.cpu0.op_class::IntMult                    8176      0.14%     72.52% # Class of executed instruction
system.cpu0.op_class::IntDiv                    37338      0.66%     73.18% # Class of executed instruction
system.cpu0.op_class::FloatAdd                  85157      1.50%     74.67% # Class of executed instruction
system.cpu0.op_class::FloatCmp                      0      0.00%     74.67% # Class of executed instruction
system.cpu0.op_class::FloatCvt                      0      0.00%     74.67% # Class of executed instruction
system.cpu0.op_class::FloatMult                     0      0.00%     74.67% # Class of executed instruction
system.cpu0.op_class::FloatMultAcc                  0      0.00%     74.67% # Class of executed instruction
system.cpu0.op_class::FloatDiv                      0      0.00%     74.67% # Class of executed instruction
system.cpu0.op_class::FloatMisc                     0      0.00%     74.67% # Class of executed instruction
system.cpu0.op_class::FloatSqrt                     0      0.00%     74.67% # Class of executed instruction
system.cpu0.op_class::SimdAdd                       0      0.00%     74.67% # Class of executed instruction
system.cpu0.op_class::SimdAddAcc                    0      0.00%     74.67% # Class of executed instruction
system.cpu0.op_class::SimdAlu                   30822      0.54%     75.22% # Class of executed instruction
system.cpu0.op_class::SimdCmp                       0      0.00%     75.22% # Class of executed instruction
system.cpu0.op_class::SimdCvt                    7734      0.14%     75.35% # Class of executed instruction
system.cpu0.op_class::SimdMisc                  29273      0.51%     75.87% # Class of executed instruction
system.cpu0.op_class::SimdMult                      0      0.00%     75.87% # Class of executed instruction
system.cpu0.op_class::SimdMultAcc                   0      0.00%     75.87% # Class of executed instruction
system.cpu0.op_class::SimdShift                     0      0.00%     75.87% # Class of executed instruction
system.cpu0.op_class::SimdShiftAcc                  0      0.00%     75.87% # Class of executed instruction
system.cpu0.op_class::SimdDiv                       0      0.00%     75.87% # Class of executed instruction
system.cpu0.op_class::SimdSqrt                      0      0.00%     75.87% # Class of executed instruction
system.cpu0.op_class::SimdFloatAdd              49316      0.87%     76.73% # Class of executed instruction
system.cpu0.op_class::SimdFloatAlu                  0      0.00%     76.73% # Class of executed instruction
system.cpu0.op_class::SimdFloatCmp                  0      0.00%     76.73% # Class of executed instruction
system.cpu0.op_class::SimdFloatCvt              30932      0.54%     77.28% # Class of executed instruction
system.cpu0.op_class::SimdFloatDiv                527      0.01%     77.29% # Class of executed instruction
system.cpu0.op_class::SimdFloatMisc                 0      0.00%     77.29% # Class of executed instruction
system.cpu0.op_class::SimdFloatMult             35880      0.63%     77.92% # Class of executed instruction
system.cpu0.op_class::SimdFloatMultAcc              0      0.00%     77.92% # Class of executed instruction
system.cpu0.op_class::SimdFloatSqrt                 0      0.00%     77.92% # Class of executed instruction
system.cpu0.op_class::SimdReduceAdd                 0      0.00%     77.92% # Class of executed instruction
system.cpu0.op_class::SimdReduceAlu                 0      0.00%     77.92% # Class of executed instruction
system.cpu0.op_class::SimdReduceCmp                 0      0.00%     77.92% # Class of executed instruction
system.cpu0.op_class::SimdFloatReduceAdd            0      0.00%     77.92% # Class of executed instruction
system.cpu0.op_class::SimdFloatReduceCmp            0      0.00%     77.92% # Class of executed instruction
system.cpu0.op_class::SimdAes                       0      0.00%     77.92% # Class of executed instruction
system.cpu0.op_class::SimdAesMix                    0      0.00%     77.92% # Class of executed instruction
system.cpu0.op_class::SimdSha1Hash                  0      0.00%     77.92% # Class of executed instruction
system.cpu0.op_class::SimdSha1Hash2                 0      0.00%     77.92% # Class of executed instruction
system.cpu0.op_class::SimdSha256Hash                0      0.00%     77.92% # Class of executed instruction
system.cpu0.op_class::SimdSha256Hash2               0      0.00%     77.92% # Class of executed instruction
system.cpu0.op_class::SimdShaSigma2                 0      0.00%     77.92% # Class of executed instruction
system.cpu0.op_class::SimdShaSigma3                 0      0.00%     77.92% # Class of executed instruction
system.cpu0.op_class::SimdPredAlu                   0      0.00%     77.92% # Class of executed instruction
system.cpu0.op_class::MemRead                  709850     12.48%     90.39% # Class of executed instruction
system.cpu0.op_class::MemWrite                 393582      6.92%     97.31% # Class of executed instruction
system.cpu0.op_class::FloatMemRead              97231      1.71%     99.02% # Class of executed instruction
system.cpu0.op_class::FloatMemWrite             55696      0.98%    100.00% # Class of executed instruction
system.cpu0.op_class::IprAccess                     0      0.00%    100.00% # Class of executed instruction
system.cpu0.op_class::InstPrefetch                  0      0.00%    100.00% # Class of executed instruction
system.cpu0.op_class::total                   5689291                       # Class of executed instruction
system.cpu0.workload.numSyscalls                   19                       # Number of system calls
system.cpu1.Branches                           597868                       # Number of branches fetched
system.cpu1.committedInsts                    3094064                       # Number of instructions committed
system.cpu1.committedOps                      5689267                       # Number of ops (including micro ops) committed
system.cpu1.idle_fraction                    0.009104                       # Percentage of idle cycles
system.cpu1.not_idle_fraction                0.990896                       # Percentage of non-idle cycles
system.cpu1.numCycles                        13293955                       # number of cpu cycles simulated
system.cpu1.numWorkItemsCompleted                   0                       # number of work items this cpu completed
system.cpu1.numWorkItemsStarted                     0                       # number of work items this cpu started
system.cpu1.num_busy_cycles              13172926.960405                       # Number of busy cycles
system.cpu1.num_cc_register_reads             2791531                       # number of times the CC registers were read
system.cpu1.num_cc_register_writes            1722021                       # number of times the CC registers were written
system.cpu1.num_conditional_control_insts       428621                       # number of instructions that are conditional controls
system.cpu1.num_fp_alu_accesses                459095                       # Number of float alu accesses
system.cpu1.num_fp_insts                       459095                       # number of float instructions
system.cpu1.num_fp_register_reads              571186                       # number of times the floating registers were read
system.cpu1.num_fp_register_writes             387232                       # number of times the floating registers were written
system.cpu1.num_func_calls                      99742                       # number of times a function call or return occured
system.cpu1.num_idle_cycles              121028.039595                       # Number of idle cycles
system.cpu1.num_int_alu_accesses              5323823                       # Number of integer alu accesses
system.cpu1.num_int_insts                     5323823                       # number of integer instructions
system.cpu1.num_int_register_reads           10623046                       # number of times the integer registers were read
system.cpu1.num_int_register_writes           4264619                       # number of times the integer registers were written
system.cpu1.num_load_insts                     807081                       # Number of load instructions
system.cpu1.num_mem_refs                      1256359                       # number of memory refs
system.cpu1.num_store_insts                    449278                       # Number of store instructions
system.cpu1.num_vec_alu_accesses                    0                       # Number of vector alu accesses
system.cpu1.num_vec_insts                           0                       # number of vector instructions
system.cpu1.num_vec_register_reads                  0                       # number of times the vector registers were read
system.cpu1.num_vec_register_writes                 0                       # number of times the vector registers were written
system.cpu1.op_class::No_OpClass                79275      1.39%      1.39% # Class of executed instruction
system.cpu1.op_class::IntAlu                  4038502     70.98%     72.38% # Class of executed instruction
system.cpu1.op_class::IntMult                    8176      0.14%     72.52% # Class of executed instruction
system.cpu1.op_class::IntDiv                    37338      0.66%     73.18% # Class of executed instruction
system.cpu1.op_class::FloatAdd                  85157      1.50%     74.67% # Class of executed instruction
system.cpu1.op_class::FloatCmp                      0      0.00%     74.67% # Class of executed instruction
system.cpu1.op_class::FloatCvt                      0      0.00%     74.67% # Class of executed instruction
system.cpu1.op_class::FloatMult                     0      0.00%     74.67% # Class of executed instruction
system.cpu1.op_class::FloatMultAcc                  0      0.00%     74.67% # Class of executed instruction
system.cpu1.op_class::FloatDiv                      0      0.00%     74.67% # Class of executed instruction
system.cpu1.op_class::FloatMisc                     0      0.00%     74.67% # Class of executed instruction
system.cpu1.op_class::FloatSqrt                     0      0.00%     74.67% # Class of executed instruction
system.cpu1.op_class::SimdAdd                       0      0.00%     74.67% # Class of executed instruction
system.cpu1.op_class::SimdAddAcc                    0      0.00%     74.67% # Class of executed instruction
system.cpu1.op_class::SimdAlu                   30822      0.54%     75.22% # Class of executed instruction
system.cpu1.op_class::SimdCmp                       0      0.00%     75.22% # Class of executed instruction
system.cpu1.op_class::SimdCvt                    7734      0.14%     75.35% # Class of executed instruction
system.cpu1.op_class::SimdMisc                  29273      0.51%     75.87% # Class of executed instruction
system.cpu1.op_class::SimdMult                      0      0.00%     75.87% # Class of executed instruction
system.cpu1.op_class::SimdMultAcc                   0      0.00%     75.87% # Class of executed instruction
system.cpu1.op_class::SimdShift                     0      0.00%     75.87% # Class of executed instruction
system.cpu1.op_class::SimdShiftAcc                  0      0.00%     75.87% # Class of executed instruction
system.cpu1.op_class::SimdDiv                       0      0.00%     75.87% # Class of executed instruction
system.cpu1.op_class::SimdSqrt                      0      0.00%     75.87% # Class of executed instruction
system.cpu1.op_class::SimdFloatAdd              49316      0.87%     76.73% # Class of executed instruction
system.cpu1.op_class::SimdFloatAlu                  0      0.00%     76.73% # Class of executed instruction
system.cpu1.op_class::SimdFloatCmp                  0      0.00%     76.73% # Class of executed instruction
system.cpu1.op_class::SimdFloatCvt              30932      0.54%     77.28% # Class of executed instruction
system.cpu1.op_class::SimdFloatDiv                527      0.01%     77.29% # Class of executed instruction
system.cpu1.op_class::SimdFloatMisc                 0      0.00%     77.29% # Class of executed instruction
system.cpu1.op_class::SimdFloatMult             35880      0.63%     77.92% # Class of executed instruction
system.cpu1.op_class::SimdFloatMultAcc              0      0.00%     77.92% # Class of executed instruction
system.cpu1.op_class::SimdFloatSqrt                 0      0.00%     77.92% # Class of executed instruction
system.cpu1.op_class::SimdReduceAdd                 0      0.00%     77.92% # Class of executed instruction
system.cpu1.op_class::SimdReduceAlu                 0      0.00%     77.92% # Class of executed instruction
system.cpu1.op_class::SimdReduceCmp                 0      0.00%     77.92% # Class of executed instruction
system.cpu1.op_class::SimdFloatReduceAdd            0      0.00%     77.92% # Class of executed instruction
system.cpu1.op_class::SimdFloatReduceCmp            0      0.00%     77.92% # Class of executed instruction
system.cpu1.op_class::SimdAes                       0      0.00%     77.92% # Class of executed instruction
system.cpu1.op_class::SimdAesMix                    0      0.00%     77.92% # Class of executed instruction
system.cpu1.op_class::SimdSha1Hash                  0      0.00%     77.92% # Class of executed instruction
system.cpu1.op_class::SimdSha1Hash2                 0      0.00%     77.92% # Class of executed instruction
system.cpu1.op_class::SimdSha256Hash                0      0.00%     77.92% # Class of executed instruction
system.cpu1.op_class::SimdSha256Hash2               0      0.00%     77.92% # Class of executed instruction
system.cpu1.op_class::SimdShaSigma2                 0      0.00%     77.92% # Class of executed instruction
system.cpu1.op_class::SimdShaSigma3                 0      0.00%     77.92% # Class of executed instruction
system.cpu1.op_class::SimdPredAlu                   0      0.00%     77.92% # Class of executed instruction
system.cpu1.op_class::MemRead                  709850     12.48%     90.39% # Class of executed instruction
system.cpu1.op_class::MemWrite                 393582      6.92%     97.31% # Class of executed instruction
system.cpu1.op_class::FloatMemRead              97231      1.71%     99.02% # Class of executed instruction
system.cpu1.op_class::FloatMemWrite             55696      0.98%    100.00% # Class of executed instruction
system.cpu1.op_class::IprAccess                     0      0.00%    100.00% # Class of executed instruction
system.cpu1.op_class::InstPrefetch                  0      0.00%    100.00% # Class of executed instruction
system.cpu1.op_class::total                   5689291                       # Class of executed instruction
system.cpu1.workload.numSyscalls                   19                       # Number of system calls
system.cpu2.Branches                           597868                       # Number of branches fetched
system.cpu2.committedInsts                    3094064                       # Number of instructions committed
system.cpu2.committedOps                      5689267                       # Number of ops (including micro ops) committed
system.cpu2.idle_fraction                    0.000000                       # Percentage of idle cycles
system.cpu2.not_idle_fraction                1.000000                       # Percentage of non-idle cycles
system.cpu2.numCycles                        13416095                       # number of cpu cycles simulated
system.cpu2.numWorkItemsCompleted                   0                       # number of work items this cpu completed
system.cpu2.numWorkItemsStarted                     0                       # number of work items this cpu started
system.cpu2.num_busy_cycles              13416094.999000                       # Number of busy cycles
system.cpu2.num_cc_register_reads             2791531                       # number of times the CC registers were read
system.cpu2.num_cc_register_writes            1722021                       # number of times the CC registers were written
system.cpu2.num_conditional_control_insts       428621                       # number of instructions that are conditional controls
system.cpu2.num_fp_alu_accesses                459095                       # Number of float alu accesses
system.cpu2.num_fp_insts                       459095                       # number of float instructions
system.cpu2.num_fp_register_reads              571186                       # number of times the floating registers were read
system.cpu2.num_fp_register_writes             387232                       # number of times the floating registers were written
system.cpu2.num_func_calls                      99742                       # number of times a function call or return occured
system.cpu2.num_idle_cycles                  0.001000                       # Number of idle cycles
system.cpu2.num_int_alu_accesses              5323823                       # Number of integer alu accesses
system.cpu2.num_int_insts                     5323823                       # number of integer instructions
system.cpu2.num_int_register_reads           10623046                       # number of times the integer registers were read
system.cpu2.num_int_register_writes           4264619                       # number of times the integer registers were written
system.cpu2.num_load_insts                     807081                       # Number of load instructions
system.cpu2.num_mem_refs                      1256359                       # number of memory refs
system.cpu2.num_store_insts                    449278                       # Number of store instructions
system.cpu2.num_vec_alu_accesses                    0                       # Number of vector alu accesses
system.cpu2.num_vec_insts                           0                       # number of vector instructions
system.cpu2.num_vec_register_reads                  0                       # number of times the vector registers were read
system.cpu2.num_vec_register_writes                 0                       # number of times the vector registers were written
system.cpu2.op_class::No_OpClass                79275      1.39%      1.39% # Class of executed instruction
system.cpu2.op_class::IntAlu                  4038502     70.98%     72.38% # Class of executed instruction
system.cpu2.op_class::IntMult                    8176      0.14%     72.52% # Class of executed instruction
system.cpu2.op_class::IntDiv                    37338      0.66%     73.18% # Class of executed instruction
system.cpu2.op_class::FloatAdd                  85157      1.50%     74.67% # Class of executed instruction
system.cpu2.op_class::FloatCmp                      0      0.00%     74.67% # Class of executed instruction
system.cpu2.op_class::FloatCvt                      0      0.00%     74.67% # Class of executed instruction
system.cpu2.op_class::FloatMult                     0      0.00%     74.67% # Class of executed instruction
system.cpu2.op_class::FloatMultAcc                  0      0.00%     74.67% # Class of executed instruction
system.cpu2.op_class::FloatDiv                      0      0.00%     74.67% # Class of executed instruction
system.cpu2.op_class::FloatMisc                     0      0.00%     74.67% # Class of executed instruction
system.cpu2.op_class::FloatSqrt                     0      0.00%     74.67% # Class of executed instruction
system.cpu2.op_class::SimdAdd                       0      0.00%     74.67% # Class of executed instruction
system.cpu2.op_class::SimdAddAcc                    0      0.00%     74.67% # Class of executed instruction
system.cpu2.op_class::SimdAlu                   30822      0.54%     75.22% # Class of executed instruction
system.cpu2.op_class::SimdCmp                       0      0.00%     75.22% # Class of executed instruction
system.cpu2.op_class::SimdCvt                    7734      0.14%     75.35% # Class of executed instruction
system.cpu2.op_class::SimdMisc                  29273      0.51%     75.87% # Class of executed instruction
system.cpu2.op_class::SimdMult                      0      0.00%     75.87% # Class of executed instruction
system.cpu2.op_class::SimdMultAcc                   0      0.00%     75.87% # Class of executed instruction
system.cpu2.op_class::SimdShift                     0      0.00%     75.87% # Class of executed instruction
system.cpu2.op_class::SimdShiftAcc                  0      0.00%     75.87% # Class of executed instruction
system.cpu2.op_class::SimdDiv                       0      0.00%     75.87% # Class of executed instruction
system.cpu2.op_class::SimdSqrt                      0      0.00%     75.87% # Class of executed instruction
system.cpu2.op_class::SimdFloatAdd              49316      0.87%     76.73% # Class of executed instruction
system.cpu2.op_class::SimdFloatAlu                  0      0.00%     76.73% # Class of executed instruction
system.cpu2.op_class::SimdFloatCmp                  0      0.00%     76.73% # Class of executed instruction
system.cpu2.op_class::SimdFloatCvt              30932      0.54%     77.28% # Class of executed instruction
system.cpu2.op_class::SimdFloatDiv                527      0.01%     77.29% # Class of executed instruction
system.cpu2.op_class::SimdFloatMisc                 0      0.00%     77.29% # Class of executed instruction
system.cpu2.op_class::SimdFloatMult             35880      0.63%     77.92% # Class of executed instruction
system.cpu2.op_class::SimdFloatMultAcc              0      0.00%     77.92% # Class of executed instruction
system.cpu2.op_class::SimdFloatSqrt                 0      0.00%     77.92% # Class of executed instruction
system.cpu2.op_class::SimdReduceAdd                 0      0.00%     77.92% # Class of executed instruction
system.cpu2.op_class::SimdReduceAlu                 0      0.00%     77.92% # Class of executed instruction
system.cpu2.op_class::SimdReduceCmp                 0      0.00%     77.92% # Class of executed instruction
system.cpu2.op_class::SimdFloatReduceAdd            0      0.00%     77.92% # Class of executed instruction
system.cpu2.op_class::SimdFloatReduceCmp            0      0.00%     77.92% # Class of executed instruction
system.cpu2.op_class::SimdAes                       0      0.00%     77.92% # Class of executed instruction
system.cpu2.op_class::SimdAesMix                    0      0.00%     77.92% # Class of executed instruction
system.cpu2.op_class::SimdSha1Hash                  0      0.00%     77.92% # Class of executed instruction
system.cpu2.op_class::SimdSha1Hash2                 0      0.00%     77.92% # Class of executed instruction
system.cpu2.op_class::SimdSha256Hash                0      0.00%     77.92% # Class of executed instruction
system.cpu2.op_class::SimdSha256Hash2               0      0.00%     77.92% # Class of executed instruction
system.cpu2.op_class::SimdShaSigma2                 0      0.00%     77.92% # Class of executed instruction
system.cpu2.op_class::SimdShaSigma3                 0      0.00%     77.92% # Class of executed instruction
system.cpu2.op_class::SimdPredAlu                   0      0.00%     77.92% # Class of executed instruction
system.cpu2.op_class::MemRead                  709850     12.48%     90.39% # Class of executed instruction
system.cpu2.op_class::MemWrite                 393582      6.92%     97.31% # Class of executed instruction
system.cpu2.op_class::FloatMemRead              97231      1.71%     99.02% # Class of executed instruction
system.cpu2.op_class::FloatMemWrite             55696      0.98%    100.00% # Class of executed instruction
system.cpu2.op_class::IprAccess                     0      0.00%    100.00% # Class of executed instruction
system.cpu2.op_class::InstPrefetch                  0      0.00%    100.00% # Class of executed instruction
system.cpu2.op_class::total                   5689291                       # Class of executed instruction
system.cpu2.workload.numSyscalls                   19                       # Number of system calls
system.cpu3.Branches                           597868                       # Number of branches fetched
system.cpu3.committedInsts                    3094064                       # Number of instructions committed
system.cpu3.committedOps                      5689267                       # Number of ops (including micro ops) committed
system.cpu3.idle_fraction                    0.009603                       # Percentage of idle cycles
system.cpu3.not_idle_fraction                0.990397                       # Percentage of non-idle cycles
system.cpu3.numCycles                        13287265                       # number of cpu cycles simulated
system.cpu3.numWorkItemsCompleted                   0                       # number of work items this cpu completed
system.cpu3.numWorkItemsStarted                     0                       # number of work items this cpu started
system.cpu3.num_busy_cycles              13159672.107798                       # Number of busy cycles
system.cpu3.num_cc_register_reads             2791531                       # number of times the CC registers were read
system.cpu3.num_cc_register_writes            1722021                       # number of times the CC registers were written
system.cpu3.num_conditional_control_insts       428621                       # number of instructions that are conditional controls
system.cpu3.num_fp_alu_accesses                459095                       # Number of float alu accesses
system.cpu3.num_fp_insts                       459095                       # number of float instructions
system.cpu3.num_fp_register_reads              571186                       # number of times the floating registers were read
system.cpu3.num_fp_register_writes             387232                       # number of times the floating registers were written
system.cpu3.num_func_calls                      99742                       # number of times a function call or return occured
system.cpu3.num_idle_cycles              127592.892202                       # Number of idle cycles
system.cpu3.num_int_alu_accesses              5323823                       # Number of integer alu accesses
system.cpu3.num_int_insts                     5323823                       # number of integer instructions
system.cpu3.num_int_register_reads           10623046                       # number of times the integer registers were read
system.cpu3.num_int_register_writes           4264619                       # number of times the integer registers were written
system.cpu3.num_load_insts                     807081                       # Number of load instructions
system.cpu3.num_mem_refs                      1256359                       # number of memory refs
system.cpu3.num_store_insts                    449278                       # Number of store instructions
system.cpu3.num_vec_alu_accesses                    0                       # Number of vector alu accesses
system.cpu3.num_vec_insts                           0                       # number of vector instructions
system.cpu3.num_vec_register_reads                  0                       # number of times the vector registers were read
system.cpu3.num_vec_register_writes                 0                       # number of times the vector registers were written
system.cpu3.op_class::No_OpClass                79275      1.39%      1.39% # Class of executed instruction
system.cpu3.op_class::IntAlu                  4038502     70.98%     72.38% # Class of executed instruction
system.cpu3.op_class::IntMult                    8176      0.14%     72.52% # Class of executed instruction
system.cpu3.op_class::IntDiv                    37338      0.66%     73.18% # Class of executed instruction
system.cpu3.op_class::FloatAdd                  85157      1.50%     74.67% # Class of executed instruction
system.cpu3.op_class::FloatCmp                      0      0.00%     74.67% # Class of executed instruction
system.cpu3.op_class::FloatCvt                      0      0.00%     74.67% # Class of executed instruction
system.cpu3.op_class::FloatMult                     0      0.00%     74.67% # Class of executed instruction
system.cpu3.op_class::FloatMultAcc                  0      0.00%     74.67% # Class of executed instruction
system.cpu3.op_class::FloatDiv                      0      0.00%     74.67% # Class of executed instruction
system.cpu3.op_class::FloatMisc                     0      0.00%     74.67% # Class of executed instruction
system.cpu3.op_class::FloatSqrt                     0      0.00%     74.67% # Class of executed instruction
system.cpu3.op_class::SimdAdd                       0      0.00%     74.67% # Class of executed instruction
system.cpu3.op_class::SimdAddAcc                    0      0.00%     74.67% # Class of executed instruction
system.cpu3.op_class::SimdAlu                   30822      0.54%     75.22% # Class of executed instruction
system.cpu3.op_class::SimdCmp                       0      0.00%     75.22% # Class of executed instruction
system.cpu3.op_class::SimdCvt                    7734      0.14%     75.35% # Class of executed instruction
system.cpu3.op_class::SimdMisc                  29273      0.51%     75.87% # Class of executed instruction
system.cpu3.op_class::SimdMult                      0      0.00%     75.87% # Class of executed instruction
system.cpu3.op_class::SimdMultAcc                   0      0.00%     75.87% # Class of executed instruction
system.cpu3.op_class::SimdShift                     0      0.00%     75.87% # Class of executed instruction
system.cpu3.op_class::SimdShiftAcc                  0      0.00%     75.87% # Class of executed instruction
system.cpu3.op_class::SimdDiv                       0      0.00%     75.87% # Class of executed instruction
system.cpu3.op_class::SimdSqrt                      0      0.00%     75.87% # Class of executed instruction
system.cpu3.op_class::SimdFloatAdd              49316      0.87%     76.73% # Class of executed instruction
system.cpu3.op_class::SimdFloatAlu                  0      0.00%     76.73% # Class of executed instruction
system.cpu3.op_class::SimdFloatCmp                  0      0.00%     76.73% # Class of executed instruction
system.cpu3.op_class::SimdFloatCvt              30932      0.54%     77.28% # Class of executed instruction
system.cpu3.op_class::SimdFloatDiv                527      0.01%     77.29% # Class of executed instruction
system.cpu3.op_class::SimdFloatMisc                 0      0.00%     77.29% # Class of executed instruction
system.cpu3.op_class::SimdFloatMult             35880      0.63%     77.92% # Class of executed instruction
system.cpu3.op_class::SimdFloatMultAcc              0      0.00%     77.92% # Class of executed instruction
system.cpu3.op_class::SimdFloatSqrt                 0      0.00%     77.92% # Class of executed instruction
system.cpu3.op_class::SimdReduceAdd                 0      0.00%     77.92% # Class of executed instruction
system.cpu3.op_class::SimdReduceAlu                 0      0.00%     77.92% # Class of executed instruction
system.cpu3.op_class::SimdReduceCmp                 0      0.00%     77.92% # Class of executed instruction
system.cpu3.op_class::SimdFloatReduceAdd            0      0.00%     77.92% # Class of executed instruction
system.cpu3.op_class::SimdFloatReduceCmp            0      0.00%     77.92% # Class of executed instruction
system.cpu3.op_class::SimdAes                       0      0.00%     77.92% # Class of executed instruction
system.cpu3.op_class::SimdAesMix                    0      0.00%     77.92% # Class of executed instruction
system.cpu3.op_class::SimdSha1Hash                  0      0.00%     77.92% # Class of executed instruction
system.cpu3.op_class::SimdSha1Hash2                 0      0.00%     77.92% # Class of executed instruction
system.cpu3.op_class::SimdSha256Hash                0      0.00%     77.92% # Class of executed instruction
system.cpu3.op_class::SimdSha256Hash2               0      0.00%     77.92% # Class of executed instruction
system.cpu3.op_class::SimdShaSigma2                 0      0.00%     77.92% # Class of executed instruction
system.cpu3.op_class::SimdShaSigma3                 0      0.00%     77.92% # Class of executed instruction
system.cpu3.op_class::SimdPredAlu                   0      0.00%     77.92% # Class of executed instruction
system.cpu3.op_class::MemRead                  709850     12.48%     90.39% # Class of executed instruction
system.cpu3.op_class::MemWrite                 393582      6.92%     97.31% # Class of executed instruction
system.cpu3.op_class::FloatMemRead              97231      1.71%     99.02% # Class of executed instruction
system.cpu3.op_class::FloatMemWrite             55696      0.98%    100.00% # Class of executed instruction
system.cpu3.op_class::IprAccess                     0      0.00%    100.00% # Class of executed instruction
system.cpu3.op_class::InstPrefetch                  0      0.00%    100.00% # Class of executed instruction
system.cpu3.op_class::total                   5689291                       # Class of executed instruction
system.cpu3.workload.numSyscalls                   19                       # Number of system calls
system.noc_network.Directory.incomplete_times_seqr       139500                      
system.noc_network.Directory.miss_latency_hist_seqr.first_response_to_completion::bucket_size           16                      
system.noc_network.Directory.miss_latency_hist_seqr.first_response_to_completion::max_bucket          159                      
system.noc_network.Directory.miss_latency_hist_seqr.first_response_to_completion::samples            4                      
system.noc_network.Directory.miss_latency_hist_seqr.first_response_to_completion::mean           75                      
system.noc_network.Directory.miss_latency_hist_seqr.first_response_to_completion::gmean    74.563516                      
system.noc_network.Directory.miss_latency_hist_seqr.first_response_to_completion::stdev     9.309493                      
system.noc_network.Directory.miss_latency_hist_seqr.first_response_to_completion |           0      0.00%      0.00% |           0      0.00%      0.00% |           0      0.00%      0.00% |           0      0.00%      0.00% |           3     75.00%     75.00% |           1     25.00%    100.00% |           0      0.00%    100.00% |           0      0.00%    100.00% |           0      0.00%    100.00% |           0      0.00%    100.00%
system.noc_network.Directory.miss_latency_hist_seqr.first_response_to_completion::total            4                      
system.noc_network.Directory.miss_latency_hist_seqr.forward_to_first_response::bucket_size            1                      
system.noc_network.Directory.miss_latency_hist_seqr.forward_to_first_response::max_bucket            9                      
system.noc_network.Directory.miss_latency_hist_seqr.forward_to_first_response::samples            4                      
system.noc_network.Directory.miss_latency_hist_seqr.forward_to_first_response |           4    100.00%    100.00% |           0      0.00%    100.00% |           0      0.00%    100.00% |           0      0.00%    100.00% |           0      0.00%    100.00% |           0      0.00%    100.00% |           0      0.00%    100.00% |           0      0.00%    100.00% |           0      0.00%    100.00% |           0      0.00%    100.00%
system.noc_network.Directory.miss_latency_hist_seqr.forward_to_first_response::total            4                      
system.noc_network.Directory.miss_latency_hist_seqr.initial_to_forward::bucket_size            1                      
system.noc_network.Directory.miss_latency_hist_seqr.initial_to_forward::max_bucket            9                      
system.noc_network.Directory.miss_latency_hist_seqr.initial_to_forward::samples            4                      
system.noc_network.Directory.miss_latency_hist_seqr.initial_to_forward |           4    100.00%    100.00% |           0      0.00%    100.00% |           0      0.00%    100.00% |           0      0.00%    100.00% |           0      0.00%    100.00% |           0      0.00%    100.00% |           0      0.00%    100.00% |           0      0.00%    100.00% |           0      0.00%    100.00% |           0      0.00%    100.00%
system.noc_network.Directory.miss_latency_hist_seqr.initial_to_forward::total            4                      
system.noc_network.Directory.miss_latency_hist_seqr.issue_to_initial_request::bucket_size            1                      
system.noc_network.Directory.miss_latency_hist_seqr.issue_to_initial_request::max_bucket            9                      
system.noc_network.Directory.miss_latency_hist_seqr.issue_to_initial_request::samples            4                      
system.noc_network.Directory.miss_latency_hist_seqr.issue_to_initial_request |           4    100.00%    100.00% |           0      0.00%    100.00% |           0      0.00%    100.00% |           0      0.00%    100.00% |           0      0.00%    100.00% |           0      0.00%    100.00% |           0      0.00%    100.00% |           0      0.00%    100.00% |           0      0.00%    100.00% |           0      0.00%    100.00%
system.noc_network.Directory.miss_latency_hist_seqr.issue_to_initial_request::total            4                      
system.noc_network.Directory.miss_mach_latency_hist_seqr::bucket_size           16                      
system.noc_network.Directory.miss_mach_latency_hist_seqr::max_bucket          159                      
system.noc_network.Directory.miss_mach_latency_hist_seqr::samples       139504                      
system.noc_network.Directory.miss_mach_latency_hist_seqr::mean     0.002150                      
system.noc_network.Directory.miss_mach_latency_hist_seqr::stdev     0.403913                      
system.noc_network.Directory.miss_mach_latency_hist_seqr |      139500    100.00%    100.00% |           0      0.00%    100.00% |           0      0.00%    100.00% |           0      0.00%    100.00% |           3      0.00%    100.00% |           1      0.00%    100.00% |           0      0.00%    100.00% |           0      0.00%    100.00% |           0      0.00%    100.00% |           0      0.00%    100.00%
system.noc_network.Directory.miss_mach_latency_hist_seqr::total       139504                      
system.noc_network.Directory_Controller.GETX |      134368     96.32%     96.32% |        5136      3.68%    100.00%
system.noc_network.Directory_Controller.GETX::total       139504                      
system.noc_network.Directory_Controller.I.GETX |      134368     96.32%     96.32% |        5136      3.68%    100.00%
system.noc_network.Directory_Controller.I.GETX::total       139504                      
system.noc_network.Directory_Controller.IM.Memory_Data |      134368     96.32%     96.32% |        5136      3.68%    100.00%
system.noc_network.Directory_Controller.IM.Memory_Data::total       139504                      
system.noc_network.Directory_Controller.M.PUTX |      133364     96.31%     96.31% |        5116      3.69%    100.00%
system.noc_network.Directory_Controller.M.PUTX::total       138480                      
system.noc_network.Directory_Controller.MI.Memory_Ack |      133364     96.31%     96.31% |        5116      3.69%    100.00%
system.noc_network.Directory_Controller.MI.Memory_Ack::total       138480                      
system.noc_network.Directory_Controller.Memory_Ack |      133364     96.31%     96.31% |        5116      3.69%    100.00%
system.noc_network.Directory_Controller.Memory_Ack::total       138480                      
system.noc_network.Directory_Controller.Memory_Data |      134368     96.32%     96.32% |        5136      3.68%    100.00%
system.noc_network.Directory_Controller.Memory_Data::total       139504                      
system.noc_network.Directory_Controller.PUTX |      133364     96.31%     96.31% |        5116      3.69%    100.00%
system.noc_network.Directory_Controller.PUTX::total       138480                      
system.noc_network.IFETCH.Directory.miss_type_mach_latency_hist_seqr::bucket_size           16                      
system.noc_network.IFETCH.Directory.miss_type_mach_latency_hist_seqr::max_bucket          159                      
system.noc_network.IFETCH.Directory.miss_type_mach_latency_hist_seqr::samples       104092                      
system.noc_network.IFETCH.Directory.miss_type_mach_latency_hist_seqr::mean     0.002882                      
system.noc_network.IFETCH.Directory.miss_type_mach_latency_hist_seqr::stdev     0.467597                      
system.noc_network.IFETCH.Directory.miss_type_mach_latency_hist_seqr |      104088    100.00%    100.00% |           0      0.00%    100.00% |           0      0.00%    100.00% |           0      0.00%    100.00% |           3      0.00%    100.00% |           1      0.00%    100.00% |           0      0.00%    100.00% |           0      0.00%    100.00% |           0      0.00%    100.00% |           0      0.00%    100.00%
system.noc_network.IFETCH.Directory.miss_type_mach_latency_hist_seqr::total       104092                      
system.noc_network.IFETCH.hit_latency_hist_seqr::bucket_size            1                      
system.noc_network.IFETCH.hit_latency_hist_seqr::max_bucket            9                      
system.noc_network.IFETCH.hit_latency_hist_seqr::samples     16289624                      
system.noc_network.IFETCH.hit_latency_hist_seqr |    16289624    100.00%    100.00% |           0      0.00%    100.00% |           0      0.00%    100.00% |           0      0.00%    100.00% |           0      0.00%    100.00% |           0      0.00%    100.00% |           0      0.00%    100.00% |           0      0.00%    100.00% |           0      0.00%    100.00% |           0      0.00%    100.00%
system.noc_network.IFETCH.hit_latency_hist_seqr::total     16289624                      
system.noc_network.IFETCH.latency_hist_seqr::bucket_size           16                      
system.noc_network.IFETCH.latency_hist_seqr::max_bucket          159                      
system.noc_network.IFETCH.latency_hist_seqr::samples     16393716                      
system.noc_network.IFETCH.latency_hist_seqr::mean     0.000018                      
system.noc_network.IFETCH.latency_hist_seqr::stdev     0.037260                      
system.noc_network.IFETCH.latency_hist_seqr |    16393712    100.00%    100.00% |           0      0.00%    100.00% |           0      0.00%    100.00% |           0      0.00%    100.00% |           3      0.00%    100.00% |           1      0.00%    100.00% |           0      0.00%    100.00% |           0      0.00%    100.00% |           0      0.00%    100.00% |           0      0.00%    100.00%
system.noc_network.IFETCH.latency_hist_seqr::total     16393716                      
system.noc_network.IFETCH.miss_latency_hist_seqr::bucket_size           16                      
system.noc_network.IFETCH.miss_latency_hist_seqr::max_bucket          159                      
system.noc_network.IFETCH.miss_latency_hist_seqr::samples       104092                      
system.noc_network.IFETCH.miss_latency_hist_seqr::mean     0.002882                      
system.noc_network.IFETCH.miss_latency_hist_seqr::stdev     0.467597                      
system.noc_network.IFETCH.miss_latency_hist_seqr |      104088    100.00%    100.00% |           0      0.00%    100.00% |           0      0.00%    100.00% |           0      0.00%    100.00% |           3      0.00%    100.00% |           1      0.00%    100.00% |           0      0.00%    100.00% |           0      0.00%    100.00% |           0      0.00%    100.00% |           0      0.00%    100.00%
system.noc_network.IFETCH.miss_latency_hist_seqr::total       104092                      
system.noc_network.L1Cache_Controller.Data |       34876     25.00%     25.00% |       34876     25.00%     50.00% |       34876     25.00%     75.00% |       34876     25.00%    100.00%
system.noc_network.L1Cache_Controller.Data::total       139504                      
system.noc_network.L1Cache_Controller.I.Ifetch |       26023     25.00%     25.00% |       26023     25.00%     50.00% |       26023     25.00%     75.00% |       26023     25.00%    100.00%
system.noc_network.L1Cache_Controller.I.Ifetch::total       104092                      
system.noc_network.L1Cache_Controller.I.Load |        6143     25.00%     25.00% |        6143     25.00%     50.00% |        6143     25.00%     75.00% |        6143     25.00%    100.00%
system.noc_network.L1Cache_Controller.I.Load::total        24572                      
system.noc_network.L1Cache_Controller.I.Store |        2710     25.00%     25.00% |        2710     25.00%     50.00% |        2710     25.00%     75.00% |        2710     25.00%    100.00%
system.noc_network.L1Cache_Controller.I.Store::total        10840                      
system.noc_network.L1Cache_Controller.IM.Data |        2710     25.00%     25.00% |        2710     25.00%     50.00% |        2710     25.00%     75.00% |        2710     25.00%    100.00%
system.noc_network.L1Cache_Controller.IM.Data::total        10840                      
system.noc_network.L1Cache_Controller.IS.Data |       32166     25.00%     25.00% |       32166     25.00%     50.00% |       32166     25.00%     75.00% |       32166     25.00%    100.00%
system.noc_network.L1Cache_Controller.IS.Data::total       128664                      
system.noc_network.L1Cache_Controller.Ifetch |     4098429     25.00%     25.00% |     4098429     25.00%     50.00% |     4098429     25.00%     75.00% |     4098429     25.00%    100.00%
system.noc_network.L1Cache_Controller.Ifetch::total     16393716                      
system.noc_network.L1Cache_Controller.Load |      783120     25.00%     25.00% |      783120     25.00%     50.00% |      783120     25.00%     75.00% |      783120     25.00%    100.00%
system.noc_network.L1Cache_Controller.Load::total      3132480                      
system.noc_network.L1Cache_Controller.M.Ifetch |     4072406     25.00%     25.00% |     4072406     25.00%     50.00% |     4072406     25.00%     75.00% |     4072406     25.00%    100.00%
system.noc_network.L1Cache_Controller.M.Ifetch::total     16289624                      
system.noc_network.L1Cache_Controller.M.Load |      776977     25.00%     25.00% |      776977     25.00%     50.00% |      776977     25.00%     75.00% |      776977     25.00%    100.00%
system.noc_network.L1Cache_Controller.M.Load::total      3107908                      
system.noc_network.L1Cache_Controller.M.Replacement |       34620     25.00%     25.00% |       34620     25.00%     50.00% |       34620     25.00%     75.00% |       34620     25.00%    100.00%
system.noc_network.L1Cache_Controller.M.Replacement::total       138480                      
system.noc_network.L1Cache_Controller.M.Store |      471315     25.00%     25.00% |      471315     25.00%     50.00% |      471315     25.00%     75.00% |      471315     25.00%    100.00%
system.noc_network.L1Cache_Controller.M.Store::total      1885260                      
system.noc_network.L1Cache_Controller.MI.Writeback_Ack |       34620     25.00%     25.00% |       34620     25.00%     50.00% |       34620     25.00%     75.00% |       34620     25.00%    100.00%
system.noc_network.L1Cache_Controller.MI.Writeback_Ack::total       138480                      
system.noc_network.L1Cache_Controller.Replacement |       34620     25.00%     25.00% |       34620     25.00%     50.00% |       34620     25.00%     75.00% |       34620     25.00%    100.00%
system.noc_network.L1Cache_Controller.Replacement::total       138480                      
system.noc_network.L1Cache_Controller.Store |      474025     25.00%     25.00% |      474025     25.00%     50.00% |      474025     25.00%     75.00% |      474025     25.00%    100.00%
system.noc_network.L1Cache_Controller.Store::total      1896100                      
system.noc_network.L1Cache_Controller.Writeback_Ack |       34620     25.00%     25.00% |       34620     25.00%     50.00% |       34620     25.00%     75.00% |       34620     25.00%    100.00%
system.noc_network.L1Cache_Controller.Writeback_Ack::total       138480                      
system.noc_network.LD.Directory.miss_type_mach_latency_hist_seqr::bucket_size            1                      
system.noc_network.LD.Directory.miss_type_mach_latency_hist_seqr::max_bucket            9                      
system.noc_network.LD.Directory.miss_type_mach_latency_hist_seqr::samples        24572                      
system.noc_network.LD.Directory.miss_type_mach_latency_hist_seqr |       24572    100.00%    100.00% |           0      0.00%    100.00% |           0      0.00%    100.00% |           0      0.00%    100.00% |           0      0.00%    100.00% |           0      0.00%    100.00% |           0      0.00%    100.00% |           0      0.00%    100.00% |           0      0.00%    100.00% |           0      0.00%    100.00%
system.noc_network.LD.Directory.miss_type_mach_latency_hist_seqr::total        24572                      
system.noc_network.LD.hit_latency_hist_seqr::bucket_size            1                      
system.noc_network.LD.hit_latency_hist_seqr::max_bucket            9                      
system.noc_network.LD.hit_latency_hist_seqr::samples      3107908                      
system.noc_network.LD.hit_latency_hist_seqr |     3107908    100.00%    100.00% |           0      0.00%    100.00% |           0      0.00%    100.00% |           0      0.00%    100.00% |           0      0.00%    100.00% |           0      0.00%    100.00% |           0      0.00%    100.00% |           0      0.00%    100.00% |           0      0.00%    100.00% |           0      0.00%    100.00%
system.noc_network.LD.hit_latency_hist_seqr::total      3107908                      
system.noc_network.LD.latency_hist_seqr::bucket_size            1                      
system.noc_network.LD.latency_hist_seqr::max_bucket            9                      
system.noc_network.LD.latency_hist_seqr::samples      3132480                      
system.noc_network.LD.latency_hist_seqr  |     3132480    100.00%    100.00% |           0      0.00%    100.00% |           0      0.00%    100.00% |           0      0.00%    100.00% |           0      0.00%    100.00% |           0      0.00%    100.00% |           0      0.00%    100.00% |           0      0.00%    100.00% |           0      0.00%    100.00% |           0      0.00%    100.00%
system.noc_network.LD.latency_hist_seqr::total      3132480                      
system.noc_network.LD.miss_latency_hist_seqr::bucket_size            1                      
system.noc_network.LD.miss_latency_hist_seqr::max_bucket            9                      
system.noc_network.LD.miss_latency_hist_seqr::samples        24572                      
system.noc_network.LD.miss_latency_hist_seqr |       24572    100.00%    100.00% |           0      0.00%    100.00% |           0      0.00%    100.00% |           0      0.00%    100.00% |           0      0.00%    100.00% |           0      0.00%    100.00% |           0      0.00%    100.00% |           0      0.00%    100.00% |           0      0.00%    100.00% |           0      0.00%    100.00%
system.noc_network.LD.miss_latency_hist_seqr::total        24572                      
system.noc_network.RMW_Read.Directory.miss_type_mach_latency_hist_seqr::bucket_size            1                      
system.noc_network.RMW_Read.Directory.miss_type_mach_latency_hist_seqr::max_bucket            9                      
system.noc_network.RMW_Read.Directory.miss_type_mach_latency_hist_seqr::samples         1712                      
system.noc_network.RMW_Read.Directory.miss_type_mach_latency_hist_seqr |        1712    100.00%    100.00% |           0      0.00%    100.00% |           0      0.00%    100.00% |           0      0.00%    100.00% |           0      0.00%    100.00% |           0      0.00%    100.00% |           0      0.00%    100.00% |           0      0.00%    100.00% |           0      0.00%    100.00% |           0      0.00%    100.00%
system.noc_network.RMW_Read.Directory.miss_type_mach_latency_hist_seqr::total         1712                      
system.noc_network.RMW_Read.hit_latency_hist_seqr::bucket_size            1                      
system.noc_network.RMW_Read.hit_latency_hist_seqr::max_bucket            9                      
system.noc_network.RMW_Read.hit_latency_hist_seqr::samples        97208                      
system.noc_network.RMW_Read.hit_latency_hist_seqr |       97208    100.00%    100.00% |           0      0.00%    100.00% |           0      0.00%    100.00% |           0      0.00%    100.00% |           0      0.00%    100.00% |           0      0.00%    100.00% |           0      0.00%    100.00% |           0      0.00%    100.00% |           0      0.00%    100.00% |           0      0.00%    100.00%
system.noc_network.RMW_Read.hit_latency_hist_seqr::total        97208                      
system.noc_network.RMW_Read.latency_hist_seqr::bucket_size            1                      
system.noc_network.RMW_Read.latency_hist_seqr::max_bucket            9                      
system.noc_network.RMW_Read.latency_hist_seqr::samples        98920                      
system.noc_network.RMW_Read.latency_hist_seqr |       98920    100.00%    100.00% |           0      0.00%    100.00% |           0      0.00%    100.00% |           0      0.00%    100.00% |           0      0.00%    100.00% |           0      0.00%    100.00% |           0      0.00%    100.00% |           0      0.00%    100.00% |           0      0.00%    100.00% |           0      0.00%    100.00%
system.noc_network.RMW_Read.latency_hist_seqr::total        98920                      
system.noc_network.RMW_Read.miss_latency_hist_seqr::bucket_size            1                      
system.noc_network.RMW_Read.miss_latency_hist_seqr::max_bucket            9                      
system.noc_network.RMW_Read.miss_latency_hist_seqr::samples         1712                      
system.noc_network.RMW_Read.miss_latency_hist_seqr |        1712    100.00%    100.00% |           0      0.00%    100.00% |           0      0.00%    100.00% |           0      0.00%    100.00% |           0      0.00%    100.00% |           0      0.00%    100.00% |           0      0.00%    100.00% |           0      0.00%    100.00% |           0      0.00%    100.00% |           0      0.00%    100.00%
system.noc_network.RMW_Read.miss_latency_hist_seqr::total         1712                      
system.noc_network.ST.Directory.miss_type_mach_latency_hist_seqr::bucket_size            1                      
system.noc_network.ST.Directory.miss_type_mach_latency_hist_seqr::max_bucket            9                      
system.noc_network.ST.Directory.miss_type_mach_latency_hist_seqr::samples         9128                      
system.noc_network.ST.Directory.miss_type_mach_latency_hist_seqr |        9128    100.00%    100.00% |           0      0.00%    100.00% |           0      0.00%    100.00% |           0      0.00%    100.00% |           0      0.00%    100.00% |           0      0.00%    100.00% |           0      0.00%    100.00% |           0      0.00%    100.00% |           0      0.00%    100.00% |           0      0.00%    100.00%
system.noc_network.ST.Directory.miss_type_mach_latency_hist_seqr::total         9128                      
system.noc_network.ST.hit_latency_hist_seqr::bucket_size            1                      
system.noc_network.ST.hit_latency_hist_seqr::max_bucket            9                      
system.noc_network.ST.hit_latency_hist_seqr::samples      1788052                      
system.noc_network.ST.hit_latency_hist_seqr |     1788052    100.00%    100.00% |           0      0.00%    100.00% |           0      0.00%    100.00% |           0      0.00%    100.00% |           0      0.00%    100.00% |           0      0.00%    100.00% |           0      0.00%    100.00% |           0      0.00%    100.00% |           0      0.00%    100.00% |           0      0.00%    100.00%
system.noc_network.ST.hit_latency_hist_seqr::total      1788052                      
system.noc_network.ST.latency_hist_seqr::bucket_size            1                      
system.noc_network.ST.latency_hist_seqr::max_bucket            9                      
system.noc_network.ST.latency_hist_seqr::samples      1797180                      
system.noc_network.ST.latency_hist_seqr  |     1797180    100.00%    100.00% |           0      0.00%    100.00% |           0      0.00%    100.00% |           0      0.00%    100.00% |           0      0.00%    100.00% |           0      0.00%    100.00% |           0      0.00%    100.00% |           0      0.00%    100.00% |           0      0.00%    100.00% |           0      0.00%    100.00%
system.noc_network.ST.latency_hist_seqr::total      1797180                      
system.noc_network.ST.miss_latency_hist_seqr::bucket_size            1                      
system.noc_network.ST.miss_latency_hist_seqr::max_bucket            9                      
system.noc_network.ST.miss_latency_hist_seqr::samples         9128                      
system.noc_network.ST.miss_latency_hist_seqr |        9128    100.00%    100.00% |           0      0.00%    100.00% |           0      0.00%    100.00% |           0      0.00%    100.00% |           0      0.00%    100.00% |           0      0.00%    100.00% |           0      0.00%    100.00% |           0      0.00%    100.00% |           0      0.00%    100.00% |           0      0.00%    100.00%
system.noc_network.ST.miss_latency_hist_seqr::total         9128                      
system.noc_network.delayHist::bucket_size            4                       # delay histogram for all message
system.noc_network.delayHist::max_bucket           39                       # delay histogram for all message
system.noc_network.delayHist::samples          277984                       # delay histogram for all message
system.noc_network.delayHist::mean          10.569774                       # delay histogram for all message
system.noc_network.delayHist::gmean         10.124865                       # delay histogram for all message
system.noc_network.delayHist::stdev          3.013931                       # delay histogram for all message
system.noc_network.delayHist             |           0      0.00%      0.00% |       35899     12.91%     12.91% |      136359     49.05%     61.97% |      100711     36.23%     98.20% |        4463      1.61%     99.80% |         540      0.19%    100.00% |          12      0.00%    100.00% |           0      0.00%    100.00% |           0      0.00%    100.00% |           0      0.00%    100.00% # delay histogram for all message
system.noc_network.delayHist::total            277984                       # delay histogram for all message
system.noc_network.delayVCHist.vnet_1::bucket_size            4                       # delay histogram for vnet_1
system.noc_network.delayVCHist.vnet_1::max_bucket           39                       # delay histogram for vnet_1
system.noc_network.delayVCHist.vnet_1::samples       139504                       # delay histogram for vnet_1
system.noc_network.delayVCHist.vnet_1::mean    13.155350                       # delay histogram for vnet_1
system.noc_network.delayVCHist.vnet_1::gmean    13.056404                       # delay histogram for vnet_1
system.noc_network.delayVCHist.vnet_1::stdev     1.641472                       # delay histogram for vnet_1
system.noc_network.delayVCHist.vnet_1    |           0      0.00%      0.00% |           0      0.00%      0.00% |       33778     24.21%     24.21% |      100711     72.19%     96.41% |        4463      3.20%     99.60% |         540      0.39%     99.99% |          12      0.01%    100.00% |           0      0.00%    100.00% |           0      0.00%    100.00% |           0      0.00%    100.00% # delay histogram for vnet_1
system.noc_network.delayVCHist.vnet_1::total       139504                       # delay histogram for vnet_1
system.noc_network.delayVCHist.vnet_2::bucket_size            2                       # delay histogram for vnet_2
system.noc_network.delayVCHist.vnet_2::max_bucket           19                       # delay histogram for vnet_2
system.noc_network.delayVCHist.vnet_2::samples       138480                       # delay histogram for vnet_2
system.noc_network.delayVCHist.vnet_2::mean     7.965078                       # delay histogram for vnet_2
system.noc_network.delayVCHist.vnet_2::gmean     7.836791                       # delay histogram for vnet_2
system.noc_network.delayVCHist.vnet_2::stdev     1.414661                       # delay histogram for vnet_2
system.noc_network.delayVCHist.vnet_2    |           0      0.00%      0.00% |           0      0.00%      0.00% |           0      0.00%      0.00% |       35899     25.92%     25.92% |       69235     50.00%     75.92% |       33346     24.08%    100.00% |           0      0.00%    100.00% |           0      0.00%    100.00% |           0      0.00%    100.00% |           0      0.00%    100.00% # delay histogram for vnet_2
system.noc_network.delayVCHist.vnet_2::total       138480                       # delay histogram for vnet_2
system.noc_network.hit_latency_hist_seqr::bucket_size            1                      
system.noc_network.hit_latency_hist_seqr::max_bucket            9                      
system.noc_network.hit_latency_hist_seqr::samples     21282792                      
system.noc_network.hit_latency_hist_seqr |    21282792    100.00%    100.00% |           0      0.00%    100.00% |           0      0.00%    100.00% |           0      0.00%    100.00% |           0      0.00%    100.00% |           0      0.00%    100.00% |           0      0.00%    100.00% |           0      0.00%    100.00% |           0      0.00%    100.00% |           0      0.00%    100.00%
system.noc_network.hit_latency_hist_seqr::total     21282792                      
system.noc_network.latency_hist_seqr::bucket_size           16                      
system.noc_network.latency_hist_seqr::max_bucket          159                      
system.noc_network.latency_hist_seqr::samples     21422296                      
system.noc_network.latency_hist_seqr::mean     0.000014                      
system.noc_network.latency_hist_seqr::stdev     0.032595                      
system.noc_network.latency_hist_seqr     |    21422292    100.00%    100.00% |           0      0.00%    100.00% |           0      0.00%    100.00% |           0      0.00%    100.00% |           3      0.00%    100.00% |           1      0.00%    100.00% |           0      0.00%    100.00% |           0      0.00%    100.00% |           0      0.00%    100.00% |           0      0.00%    100.00%
system.noc_network.latency_hist_seqr::total     21422296                      
system.noc_network.miss_latency_hist_seqr::bucket_size           16                      
system.noc_network.miss_latency_hist_seqr::max_bucket          159                      
system.noc_network.miss_latency_hist_seqr::samples       139504                      
system.noc_network.miss_latency_hist_seqr::mean     0.002150                      
system.noc_network.miss_latency_hist_seqr::stdev     0.403913                      
system.noc_network.miss_latency_hist_seqr |      139500    100.00%    100.00% |           0      0.00%    100.00% |           0      0.00%    100.00% |           0      0.00%    100.00% |           3      0.00%    100.00% |           1      0.00%    100.00% |           0      0.00%    100.00% |           0      0.00%    100.00% |           0      0.00%    100.00% |           0      0.00%    100.00%
system.noc_network.miss_latency_hist_seqr::total       139504                      
system.noc_network.network.average_flit_latency 15382.061557                      
system.noc_network.network.average_flit_network_latency 13799.381739                      
system.noc_network.network.average_flit_queueing_latency  1582.679819                      
system.noc_network.network.average_flit_vnet_latency |         nan                       |         nan                       |18654.501000                       | 6965.077990                       | 9365.704209                      
system.noc_network.network.average_flit_vqueue_latency |         nan                       |         nan                       | 2166.461515                       |        1000                       | 1002.107466                      
system.noc_network.network.average_hops      1.981560                      
system.noc_network.network.average_packet_latency 20016.659232                      
system.noc_network.network.average_packet_network_latency 18267.051341                      
system.noc_network.network.average_packet_queueing_latency  1749.607891                      
system.noc_network.network.average_packet_vnet_latency |         nan                       |         nan                       |26965.386497                       | 6965.077990                       |12153.242918                      
system.noc_network.network.average_packet_vqueue_latency |         nan                       |         nan                       | 2498.158167                       |        1000                       | 1002.107466                      
system.noc_network.network.avg_link_utilization     0.494992                      
system.noc_network.network.avg_vc_load   |           0      0.00%      0.00% |           0      0.00%      0.00% |           0      0.00%      0.00% |           0      0.00%      0.00% |           0      0.00%      0.00% |           0      0.00%      0.00% |           0      0.00%      0.00% |           0      0.00%      0.00% |    0.166668     33.67%     33.67% |    0.043623      8.81%     42.48% |    0.030674      6.20%     48.68% |    0.005922      1.20%     49.88% |    0.033138      6.69%     56.57% |    0.002797      0.57%     57.14% |    0.002581      0.52%     57.66% |    0.002580      0.52%     58.18% |    0.165432     33.42%     91.60% |    0.015581      3.15%     94.75% |    0.012998      2.63%     97.37% |    0.012998      2.63%    100.00%
system.noc_network.network.avg_vc_load::total     0.494992                      
system.noc_network.network.ext_in_link_utilization      1667904                      
system.noc_network.network.ext_out_link_utilization      1667904                      
system.noc_network.network.flit_network_latency |           0                       |           0                       | 15518754000                       |   964524000                       |  6532766000                      
system.noc_network.network.flit_queueing_latency |           0                       |           0                       |  1802288000                       |   138480000                       |   698990000                      
system.noc_network.network.flits_injected |           0      0.00%      0.00% |           0      0.00%      0.00% |      831904     49.88%     49.88% |      138480      8.30%     58.18% |      697520     41.82%    100.00%
system.noc_network.network.flits_injected::total      1667904                      
system.noc_network.network.flits_received |           0      0.00%      0.00% |           0      0.00%      0.00% |      831904     49.88%     49.88% |      138480      8.30%     58.18% |      697520     41.82%    100.00%
system.noc_network.network.flits_received::total      1667904                      
system.noc_network.network.int_link_utilization      3305052                      
system.noc_network.network.packet_network_latency |           0                       |           0                       |  7495946000                       |   964524000                       |  1695426000                      
system.noc_network.network.packet_queueing_latency |           0                       |           0                       |   694448000                       |   138480000                       |   139798000                      
system.noc_network.network.packets_injected |           0      0.00%      0.00% |           0      0.00%      0.00% |      277984     50.00%     50.00% |      138480     24.91%     74.91% |      139504     25.09%    100.00%
system.noc_network.network.packets_injected::total       555968                      
system.noc_network.network.packets_received |           0      0.00%      0.00% |           0      0.00%      0.00% |      277984     50.00%     50.00% |      138480     24.91%     74.91% |      139504     25.09%    100.00%
system.noc_network.network.packets_received::total       555968                      
system.noc_network.network.routers0.buffer_reads       819578                      
system.noc_network.network.routers0.buffer_writes       819578                      
system.noc_network.network.routers0.crossbar_activity       819578                      
system.noc_network.network.routers0.sw_input_arbiter_activity       820011                      
system.noc_network.network.routers0.sw_output_arbiter_activity       819578                      
system.noc_network.network.routers1.buffer_reads      1614071                      
system.noc_network.network.routers1.buffer_writes      1614071                      
system.noc_network.network.routers1.crossbar_activity      1614071                      
system.noc_network.network.routers1.sw_input_arbiter_activity      1626435                      
system.noc_network.network.routers1.sw_output_arbiter_activity      1614071                      
system.noc_network.network.routers2.buffer_reads       633675                      
system.noc_network.network.routers2.buffer_writes       633675                      
system.noc_network.network.routers2.crossbar_activity       633675                      
system.noc_network.network.routers2.sw_input_arbiter_activity       635382                      
system.noc_network.network.routers2.sw_output_arbiter_activity       633675                      
system.noc_network.network.routers3.buffer_reads       863704                      
system.noc_network.network.routers3.buffer_writes       863704                      
system.noc_network.network.routers3.crossbar_activity       863704                      
system.noc_network.network.routers3.sw_input_arbiter_activity       873250                      
system.noc_network.network.routers3.sw_output_arbiter_activity       863704                      
system.noc_network.network.routers4.buffer_reads       416976                      
system.noc_network.network.routers4.buffer_writes       416976                      
system.noc_network.network.routers4.crossbar_activity       416976                      
system.noc_network.network.routers4.sw_input_arbiter_activity       416976                      
system.noc_network.network.routers4.sw_output_arbiter_activity       416976                      
system.noc_network.network.routers5.buffer_reads       624952                      
system.noc_network.network.routers5.buffer_writes       624952                      
system.noc_network.network.routers5.crossbar_activity       624952                      
system.noc_network.network.routers5.sw_input_arbiter_activity       628308                      
system.noc_network.network.routers5.sw_output_arbiter_activity       624952                      
system.noc_network.outstanding_req_hist_seqr::bucket_size            1                      
system.noc_network.outstanding_req_hist_seqr::max_bucket            9                      
system.noc_network.outstanding_req_hist_seqr::samples     21422296                      
system.noc_network.outstanding_req_hist_seqr::mean     1.000148                      
system.noc_network.outstanding_req_hist_seqr::gmean     1.000102                      
system.noc_network.outstanding_req_hist_seqr::stdev     0.012152                      
system.noc_network.outstanding_req_hist_seqr |           0      0.00%      0.00% |    21419132     99.99%     99.99% |        3164      0.01%    100.00% |           0      0.00%    100.00% |           0      0.00%    100.00% |           0      0.00%    100.00% |           0      0.00%    100.00% |           0      0.00%    100.00% |           0      0.00%    100.00% |           0      0.00%    100.00%
system.noc_network.outstanding_req_hist_seqr::total     21422296                      
system.noc_network.socket_controllers0.cacheMemory.demand_accesses      5355574                       # Number of cache demand accesses
system.noc_network.socket_controllers0.cacheMemory.demand_hits      5320698                       # Number of cache demand hits
system.noc_network.socket_controllers0.cacheMemory.demand_misses        34876                       # Number of cache demand misses
system.noc_network.socket_controllers0.forwardToCache.avg_buf_msgs     0.002580                       # Average number of messages in buffer
system.noc_network.socket_controllers0.forwardToCache.avg_stall_time  8073.247841                       # Average number of cycles messages are stalled in this MB
system.noc_network.socket_controllers0.mandatoryQueue.avg_buf_msgs     0.399190                       # Average number of messages in buffer
system.noc_network.socket_controllers0.mandatoryQueue.avg_stall_time   999.999925                       # Average number of cycles messages are stalled in this MB
system.noc_network.socket_controllers0.requestFromCache.avg_buf_msgs     0.012941                       # Average number of messages in buffer
system.noc_network.socket_controllers0.requestFromCache.avg_stall_time  2995.548928                       # Average number of cycles messages are stalled in this MB
system.noc_network.socket_controllers0.responseToCache.avg_buf_msgs     0.002600                       # Average number of messages in buffer
system.noc_network.socket_controllers0.responseToCache.avg_stall_time 13402.501697                       # Average number of cycles messages are stalled in this MB
system.noc_network.socket_controllers1.forwardFromDir.avg_buf_msgs     0.009941                       # Average number of messages in buffer
system.noc_network.socket_controllers1.forwardFromDir.avg_stall_time   998.898115                       # Average number of cycles messages are stalled in this MB
system.noc_network.socket_controllers1.requestToDir.avg_buf_msgs     0.019956                       # Average number of messages in buffer
[...]
system.noc_network.socket_controllers3.mem_ctrl.rdPerTurnAround::36-39            1      1.18%     95.29% # Reads before turning the bus around for writes
system.noc_network.socket_controllers3.mem_ctrl.rdPerTurnAround::52-55            1      1.18%     96.47% # Reads before turning the bus around for writes
system.noc_network.socket_controllers3.mem_ctrl.rdPerTurnAround::60-63            1      1.18%     97.65% # Reads before turning the bus around for writes
system.noc_network.socket_controllers3.mem_ctrl.rdPerTurnAround::120-123            1      1.18%     98.82% # Reads before turning the bus around for writes
system.noc_network.socket_controllers3.mem_ctrl.rdPerTurnAround::172-175            1      1.18%    100.00% # Reads before turning the bus around for writes
system.noc_network.socket_controllers3.mem_ctrl.rdPerTurnAround::total           85                       # Reads before turning the bus around for writes
system.noc_network.socket_controllers3.mem_ctrl.wrPerTurnAround::samples           85                       # Writes before turning the bus around for reads
system.noc_network.socket_controllers3.mem_ctrl.wrPerTurnAround::mean    17.670588                       # Writes before turning the bus around for reads
system.noc_network.socket_controllers3.mem_ctrl.wrPerTurnAround::gmean    17.652169                       # Writes before turning the bus around for reads
system.noc_network.socket_controllers3.mem_ctrl.wrPerTurnAround::stdev     0.792648                       # Writes before turning the bus around for reads
system.noc_network.socket_controllers3.mem_ctrl.wrPerTurnAround::16           15     17.65%     17.65% # Writes before turning the bus around for reads
system.noc_network.socket_controllers3.mem_ctrl.wrPerTurnAround::18           68     80.00%     97.65% # Writes before turning the bus around for reads
system.noc_network.socket_controllers3.mem_ctrl.wrPerTurnAround::19            2      2.35%    100.00% # Writes before turning the bus around for reads
system.noc_network.socket_controllers3.mem_ctrl.wrPerTurnAround::total           85                       # Writes before turning the bus around for reads
system.noc_network.socket_controllers3.mem_ctrl.bytesReadWrQ       243968                       # Total number of bytes read from write queue
system.noc_network.socket_controllers3.mem_ctrl.bytesReadSys       328704                       # Total read bytes from the system interface side
system.noc_network.socket_controllers3.mem_ctrl.bytesWrittenSys       327424                       # Total written bytes from the system interface side
system.noc_network.socket_controllers3.mem_ctrl.avgRdBWSys        24.50                       # Average system read bandwidth in MiByte/s
system.noc_network.socket_controllers3.mem_ctrl.avgWrBWSys        24.41                       # Average system write bandwidth in MiByte/s
system.noc_network.socket_controllers3.mem_ctrl.totGap  13400508000                       # Total gap between requests
system.noc_network.socket_controllers3.mem_ctrl.avgGap   1307111.59                       # Average gap between requests
system.noc_network.socket_controllers3.mem_ctrl.requestorReadBytes::.noc_network.socket_controllers3        84736                       # Per-requestor bytes read from memory
system.noc_network.socket_controllers3.mem_ctrl.requestorWriteBytes::.noc_network.socket_controllers3        96128                       # Per-requestor bytes write to memory
system.noc_network.socket_controllers3.mem_ctrl.requestorReadRate::.noc_network.socket_controllers3 6315995.824418357573                       # Per-requestor bytes read from memory rate (Bytes/sec)
system.noc_network.socket_controllers3.mem_ctrl.requestorWriteRate::.noc_network.socket_controllers3 7165125.172414178960                       # Per-requestor bytes write to memory rate (Bytes/sec)
system.noc_network.socket_controllers3.mem_ctrl.requestorReadAccesses::.noc_network.socket_controllers3         5136                       # Per-requestor read serviced memory accesses
system.noc_network.socket_controllers3.mem_ctrl.requestorWriteAccesses::.noc_network.socket_controllers3         5116                       # Per-requestor write serviced memory accesses
system.noc_network.socket_controllers3.mem_ctrl.requestorReadTotalLat::.noc_network.socket_controllers3     29950410                       # Per-requestor read total memory access latency
system.noc_network.socket_controllers3.mem_ctrl.requestorWriteTotalLat::.noc_network.socket_controllers3 746372281256                       # Per-requestor write total memory access latency
system.noc_network.socket_controllers3.mem_ctrl.requestorReadAvgLat::.noc_network.socket_controllers3      5831.47                       # Per-requestor read average memory access latency
system.noc_network.socket_controllers3.mem_ctrl.requestorWriteAvgLat::.noc_network.socket_controllers3 145889812.60                       # Per-requestor write average memory access latency
system.noc_network.socket_controllers3.mem_ctrl.nvm.bytes_read::.noc_network.socket_controllers3       328704                       # Number of bytes read from this memory
system.noc_network.socket_controllers3.mem_ctrl.nvm.bytes_read::total       328704                       # Number of bytes read from this memory
system.noc_network.socket_controllers3.mem_ctrl.nvm.bytes_written::.noc_network.socket_controllers3       327424                       # Number of bytes written to this memory
system.noc_network.socket_controllers3.mem_ctrl.nvm.bytes_written::total       327424                       # Number of bytes written to this memory
system.noc_network.socket_controllers3.mem_ctrl.nvm.num_reads::.noc_network.socket_controllers3         5136                       # Number of read requests responded to by this memory
system.noc_network.socket_controllers3.mem_ctrl.nvm.num_reads::total         5136                       # Number of read requests responded to by this memory
system.noc_network.socket_controllers3.mem_ctrl.nvm.num_writes::.noc_network.socket_controllers3         5116                       # Number of write requests responded to by this memory
system.noc_network.socket_controllers3.mem_ctrl.nvm.num_writes::total         5116                       # Number of write requests responded to by this memory
system.noc_network.socket_controllers3.mem_ctrl.nvm.bw_read::.noc_network.socket_controllers3     24500721                       # Total read bandwidth from this memory (bytes/s)
system.noc_network.socket_controllers3.mem_ctrl.nvm.bw_read::total     24500721                       # Total read bandwidth from this memory (bytes/s)
system.noc_network.socket_controllers3.mem_ctrl.nvm.bw_write::.noc_network.socket_controllers3     24405313                       # Write bandwidth from this memory (bytes/s)
system.noc_network.socket_controllers3.mem_ctrl.nvm.bw_write::total     24405313                       # Write bandwidth from this memory (bytes/s)
system.noc_network.socket_controllers3.mem_ctrl.nvm.bw_total::.noc_network.socket_controllers3     48906034                       # Total bandwidth to/from this memory (bytes/s)
system.noc_network.socket_controllers3.mem_ctrl.nvm.bw_total::total     48906034                       # Total bandwidth to/from this memory (bytes/s)
system.noc_network.socket_controllers3.mem_ctrl.nvm.readBursts         1324                       # Number of NVM read bursts
system.noc_network.socket_controllers3.mem_ctrl.nvm.writeBursts         1502                       # Number of NVM write bursts
system.noc_network.socket_controllers3.mem_ctrl.nvm.perBankRdBursts::0          263                       # Per bank write bursts
system.noc_network.socket_controllers3.mem_ctrl.nvm.perBankRdBursts::1          244                       # Per bank write bursts
system.noc_network.socket_controllers3.mem_ctrl.nvm.perBankRdBursts::2          140                       # Per bank write bursts
system.noc_network.socket_controllers3.mem_ctrl.nvm.perBankRdBursts::3          128                       # Per bank write bursts
system.noc_network.socket_controllers3.mem_ctrl.nvm.perBankRdBursts::4           48                       # Per bank write bursts
system.noc_network.socket_controllers3.mem_ctrl.nvm.perBankRdBursts::5           48                       # Per bank write bursts
system.noc_network.socket_controllers3.mem_ctrl.nvm.perBankRdBursts::6           40                       # Per bank write bursts
system.noc_network.socket_controllers3.mem_ctrl.nvm.perBankRdBursts::7           16                       # Per bank write bursts
system.noc_network.socket_controllers3.mem_ctrl.nvm.perBankRdBursts::8           52                       # Per bank write bursts
system.noc_network.socket_controllers3.mem_ctrl.nvm.perBankRdBursts::9           16                       # Per bank write bursts
system.noc_network.socket_controllers3.mem_ctrl.nvm.perBankRdBursts::10           16                       # Per bank write bursts
system.noc_network.socket_controllers3.mem_ctrl.nvm.perBankRdBursts::11           64                       # Per bank write bursts
system.noc_network.socket_controllers3.mem_ctrl.nvm.perBankRdBursts::12           64                       # Per bank write bursts
system.noc_network.socket_controllers3.mem_ctrl.nvm.perBankRdBursts::13           56                       # Per bank write bursts
system.noc_network.socket_controllers3.mem_ctrl.nvm.perBankRdBursts::14           57                       # Per bank write bursts
system.noc_network.socket_controllers3.mem_ctrl.nvm.perBankRdBursts::15           72                       # Per bank write bursts
system.noc_network.socket_controllers3.mem_ctrl.nvm.perBankWrBursts::0          306                       # Per bank write bursts
system.noc_network.socket_controllers3.mem_ctrl.nvm.perBankWrBursts::1          270                       # Per bank write bursts
system.noc_network.socket_controllers3.mem_ctrl.nvm.perBankWrBursts::2          142                       # Per bank write bursts
system.noc_network.socket_controllers3.mem_ctrl.nvm.perBankWrBursts::3          136                       # Per bank write bursts
system.noc_network.socket_controllers3.mem_ctrl.nvm.perBankWrBursts::4           47                       # Per bank write bursts
system.noc_network.socket_controllers3.mem_ctrl.nvm.perBankWrBursts::5           45                       # Per bank write bursts
system.noc_network.socket_controllers3.mem_ctrl.nvm.perBankWrBursts::6           34                       # Per bank write bursts
system.noc_network.socket_controllers3.mem_ctrl.nvm.perBankWrBursts::7           16                       # Per bank write bursts
system.noc_network.socket_controllers3.mem_ctrl.nvm.perBankWrBursts::8          130                       # Per bank write bursts
system.noc_network.socket_controllers3.mem_ctrl.nvm.perBankWrBursts::9           16                       # Per bank write bursts
system.noc_network.socket_controllers3.mem_ctrl.nvm.perBankWrBursts::10           16                       # Per bank write bursts
system.noc_network.socket_controllers3.mem_ctrl.nvm.perBankWrBursts::11           65                       # Per bank write bursts
system.noc_network.socket_controllers3.mem_ctrl.nvm.perBankWrBursts::12           64                       # Per bank write bursts
system.noc_network.socket_controllers3.mem_ctrl.nvm.perBankWrBursts::13           68                       # Per bank write bursts
system.noc_network.socket_controllers3.mem_ctrl.nvm.perBankWrBursts::14           60                       # Per bank write bursts
system.noc_network.socket_controllers3.mem_ctrl.nvm.perBankWrBursts::15           87                       # Per bank write bursts
system.noc_network.socket_controllers3.mem_ctrl.nvm.totQLat      6791002                       # Total ticks spent queuing
system.noc_network.socket_controllers3.mem_ctrl.nvm.totBusLat      4411568                       # Total ticks spent in databus transfers
system.noc_network.socket_controllers3.mem_ctrl.nvm.totMemAccLat     29950410                       # Total ticks spent from burst creation until serviced by the NVM
system.noc_network.socket_controllers3.mem_ctrl.nvm.avgQLat      5129.16                       # Average queueing delay per NVM burst
system.noc_network.socket_controllers3.mem_ctrl.nvm.avgBusLat      3332.00                       # Average bus latency per NVM burst
system.noc_network.socket_controllers3.mem_ctrl.nvm.avgMemAccLat     22621.16                       # Average memory access latency per NVM burst
system.noc_network.socket_controllers3.mem_ctrl.nvm.bytesRead        84736                       # Total number of bytes read from DRAM
system.noc_network.socket_controllers3.mem_ctrl.nvm.bytesWritten        96128                       # Total number of bytes written to DRAM
system.noc_network.socket_controllers3.mem_ctrl.nvm.avgRdBW         6.32                       # Average DRAM read bandwidth in MiBytes/s
system.noc_network.socket_controllers3.mem_ctrl.nvm.avgWrBW         7.17                       # Average DRAM write bandwidth in MiBytes/s
system.noc_network.socket_controllers3.mem_ctrl.nvm.peakBW     19207.00                       # Theoretical peak bandwidth in MiByte/s
system.noc_network.socket_controllers3.mem_ctrl.nvm.busUtil         0.07                       # NVM Data bus utilization in percentage
system.noc_network.socket_controllers3.mem_ctrl.nvm.busUtilRead         0.03                       # NVM Data bus read utilization in percentage
system.noc_network.socket_controllers3.mem_ctrl.nvm.busUtilWrite         0.04                       # NVM Data bus write utilization in percentage
system.noc_network.socket_controllers3.mem_ctrl.nvm.pendingReads::samples         1324                       # Reads issued to NVM for which data has not been transferred
system.noc_network.socket_controllers3.mem_ctrl.nvm.pendingReads::mean     0.003021                       # Reads issued to NVM for which data has not been transferred
system.noc_network.socket_controllers3.mem_ctrl.nvm.pendingReads::stdev     0.054903                       # Reads issued to NVM for which data has not been transferred
system.noc_network.socket_controllers3.mem_ctrl.nvm.pendingReads::0         1320     99.70%     99.70% # Reads issued to NVM for which data has not been transferred
system.noc_network.socket_controllers3.mem_ctrl.nvm.pendingReads::1            4      0.30%    100.00% # Reads issued to NVM for which data has not been transferred
system.noc_network.socket_controllers3.mem_ctrl.nvm.pendingReads::total         1324                       # Reads issued to NVM for which data has not been transferred
system.noc_network.socket_controllers3.mem_ctrl.nvm.pendingWrites::samples         1502                       # Number of outstanding writes to NVM
system.noc_network.socket_controllers3.mem_ctrl.nvm.pendingWrites::mean     6.468708                       # Number of outstanding writes to NVM
system.noc_network.socket_controllers3.mem_ctrl.nvm.pendingWrites::gmean     5.722519                       # Number of outstanding writes to NVM
system.noc_network.socket_controllers3.mem_ctrl.nvm.pendingWrites::stdev     2.374081                       # Number of outstanding writes to NVM
system.noc_network.socket_controllers3.mem_ctrl.nvm.pendingWrites::1           85      5.66%      5.66% # Number of outstanding writes to NVM
system.noc_network.socket_controllers3.mem_ctrl.nvm.pendingWrites::2           85      5.66%     11.32% # Number of outstanding writes to NVM
system.noc_network.socket_controllers3.mem_ctrl.nvm.pendingWrites::3           85      5.66%     16.98% # Number of outstanding writes to NVM
system.noc_network.socket_controllers3.mem_ctrl.nvm.pendingWrites::4           85      5.66%     22.64% # Number of outstanding writes to NVM
system.noc_network.socket_controllers3.mem_ctrl.nvm.pendingWrites::5           85      5.66%     28.30% # Number of outstanding writes to NVM
system.noc_network.socket_controllers3.mem_ctrl.nvm.pendingWrites::6           85      5.66%     33.95% # Number of outstanding writes to NVM
system.noc_network.socket_controllers3.mem_ctrl.nvm.pendingWrites::7           85      5.66%     39.61% # Number of outstanding writes to NVM
system.noc_network.socket_controllers3.mem_ctrl.nvm.pendingWrites::8          828     55.13%     94.74% # Number of outstanding writes to NVM
system.noc_network.socket_controllers3.mem_ctrl.nvm.pendingWrites::9           78      5.19%     99.93% # Number of outstanding writes to NVM
system.noc_network.socket_controllers3.mem_ctrl.nvm.pendingWrites::10            1      0.07%    100.00% # Number of outstanding writes to NVM
system.noc_network.socket_controllers3.mem_ctrl.nvm.pendingWrites::total         1502                       # Number of outstanding writes to NVM
system.noc_network.socket_controllers3.mem_ctrl.nvm.bytesPerBank::samples         2539                       # Bytes read within a bank before loading new bank
system.noc_network.socket_controllers3.mem_ctrl.nvm.bytesPerBank::mean    71.007483                       # Bytes read within a bank before loading new bank
system.noc_network.socket_controllers3.mem_ctrl.nvm.bytesPerBank::gmean    68.550896                       # Bytes read within a bank before loading new bank
system.noc_network.socket_controllers3.mem_ctrl.nvm.bytesPerBank::stdev    25.202309                       # Bytes read within a bank before loading new bank
system.noc_network.socket_controllers3.mem_ctrl.nvm.bytesPerBank::64-65         2318     91.30%     91.30% # Bytes read within a bank before loading new bank
system.noc_network.socket_controllers3.mem_ctrl.nvm.bytesPerBank::128-129          180      7.09%     98.39% # Bytes read within a bank before loading new bank
system.noc_network.socket_controllers3.mem_ctrl.nvm.bytesPerBank::192-193           25      0.98%     99.37% # Bytes read within a bank before loading new bank
system.noc_network.socket_controllers3.mem_ctrl.nvm.bytesPerBank::256-257           16      0.63%    100.00% # Bytes read within a bank before loading new bank
system.noc_network.socket_controllers3.mem_ctrl.nvm.bytesPerBank::total         2539                       # Bytes read within a bank before loading new bank
system.noc_network.socket_controllers3.mem_ctrl.nvm.power_state.pwrStateResidencyTicks::UNDEFINED  13416095000                       # Cumulative time (in ticks) in various power states
system.noc_network.socket_controllers3.mem_ctrl.power_state.pwrStateResidencyTicks::UNDEFINED  13416095000                       # Cumulative time (in ticks) in various power states
system.noc_network.socket_controllers3.power_state.pwrStateResidencyTicks::UNDEFINED  13416095000                       # Cumulative time (in ticks) in various power states
system.noc_network.socket_controllers4.power_state.pwrStateResidencyTicks::UNDEFINED  13416095000                       # Cumulative time (in ticks) in various power states
system.noc_network.socket_controllers4.sequencer.power_state.pwrStateResidencyTicks::UNDEFINED  13416095000                       # Cumulative time (in ticks) in various power states
system.noc_network.socket_controllers5.power_state.pwrStateResidencyTicks::UNDEFINED  13416095000                       # Cumulative time (in ticks) in various power states
system.noc_network.socket_controllers5.sequencer.power_state.pwrStateResidencyTicks::UNDEFINED  13416095000                       # Cumulative time (in ticks) in various power states
system.noc_network.sys_port_proxy.power_state.pwrStateResidencyTicks::UNDEFINED  13416095000                       # Cumulative time (in ticks) in various power states
system.voltage_domain.voltage                       1                       # Voltage in Volts

---------- End Simulation Statistics   ----------
