
---------- Begin Simulation Statistics ----------
final_tick                               592034529000                       # Number of ticks from beginning of simulation (restored from checkpoints and never reset)
host_inst_rate                                  27781                       # Simulator instruction rate (inst/s)
host_mem_usage                                1475452                       # Number of bytes of host memory used
host_op_rate                                    47758                       # Simulator op (including micro ops) rate (op/s)
host_seconds                                  1947.70                       # Real time elapsed on the host
host_tick_rate                              303966647                       # Simulator tick rate (ticks/s)
sim_freq                                 1000000000000                       # Frequency of simulated ticks
sim_insts                                    54109061                       # Number of instructions simulated
sim_ops                                      93017568                       # Number of ops (including micro ops) simulated
sim_seconds                                  0.592035                       # Number of seconds simulated
sim_ticks                                592034529000                       # Number of ticks simulated
system.cpu0.Branches                             5316                       # Number of branches fetched
system.cpu0.committedInsts                      25775                       # Number of instructions committed
system.cpu0.committedOps                        49656                       # Number of ops (including micro ops) committed
system.cpu0.idle_fraction                    0.999630                       # Percentage of idle cycles
system.cpu0.not_idle_fraction                0.000370                       # Percentage of non-idle cycles
system.cpu0.numCycles                       592034529                       # number of cpu cycles simulated
system.cpu0.numWorkItemsCompleted                   0                       # number of work items this cpu completed
system.cpu0.numWorkItemsStarted                     0                       # number of work items this cpu started
system.cpu0.num_busy_cycles              219290.000000                       # Number of busy cycles
system.cpu0.num_cc_register_reads               25618                       # number of times the CC registers were read
system.cpu0.num_cc_register_writes              14738                       # number of times the CC registers were written
system.cpu0.num_conditional_control_insts         3773                       # number of instructions that are conditional controls
system.cpu0.num_fp_alu_accesses                  2573                       # Number of float alu accesses
system.cpu0.num_fp_insts                         2573                       # number of float instructions
system.cpu0.num_fp_register_reads                2706                       # number of times the floating registers were read
system.cpu0.num_fp_register_writes               1201                       # number of times the floating registers were written
system.cpu0.num_func_calls                       1138                       # number of times a function call or return occured
system.cpu0.num_idle_cycles              591815239.000000                       # Number of idle cycles
system.cpu0.num_int_alu_accesses                47732                       # Number of integer alu accesses
system.cpu0.num_int_insts                       47732                       # number of integer instructions
system.cpu0.num_int_register_reads              94401                       # number of times the integer registers were read
system.cpu0.num_int_register_writes             36800                       # number of times the integer registers were written
system.cpu0.num_load_insts                       5800                       # Number of load instructions
system.cpu0.num_mem_refs                        11179                       # number of memory refs
system.cpu0.num_store_insts                      5379                       # Number of store instructions
system.cpu0.num_vec_alu_accesses                    0                       # Number of vector alu accesses
system.cpu0.num_vec_insts                           0                       # number of vector instructions
system.cpu0.num_vec_register_reads                  0                       # number of times the vector registers were read
system.cpu0.num_vec_register_writes                 0                       # number of times the vector registers were written
system.cpu0.op_class::No_OpClass                  784      1.58%      1.58% # Class of executed instruction
system.cpu0.op_class::IntAlu                    36900     74.23%     75.81% # Class of executed instruction
system.cpu0.op_class::IntMult                      15      0.03%     75.84% # Class of executed instruction
system.cpu0.op_class::IntDiv                       42      0.08%     75.92% # Class of executed instruction
system.cpu0.op_class::FloatAdd                    194      0.39%     76.31% # Class of executed instruction
system.cpu0.op_class::FloatCmp                      0      0.00%     76.31% # Class of executed instruction
system.cpu0.op_class::FloatCvt                      0      0.00%     76.31% # Class of executed instruction
system.cpu0.op_class::FloatMult                     0      0.00%     76.31% # Class of executed instruction
system.cpu0.op_class::FloatMultAcc                  0      0.00%     76.31% # Class of executed instruction
system.cpu0.op_class::FloatDiv                      0      0.00%     76.31% # Class of executed instruction
system.cpu0.op_class::FloatMisc                     0      0.00%     76.31% # Class of executed instruction
system.cpu0.op_class::FloatSqrt                     0      0.00%     76.31% # Class of executed instruction
system.cpu0.op_class::SimdAdd                       0      0.00%     76.31% # Class of executed instruction
system.cpu0.op_class::SimdAddAcc                    0      0.00%     76.31% # Class of executed instruction
system.cpu0.op_class::SimdAlu                     134      0.27%     76.58% # Class of executed instruction
system.cpu0.op_class::SimdCmp                       0      0.00%     76.58% # Class of executed instruction
system.cpu0.op_class::SimdCvt                      62      0.12%     76.71% # Class of executed instruction
system.cpu0.op_class::SimdMisc                    392      0.79%     77.50% # Class of executed instruction
system.cpu0.op_class::SimdMult                      0      0.00%     77.50% # Class of executed instruction
system.cpu0.op_class::SimdMultAcc                   0      0.00%     77.50% # Class of executed instruction
system.cpu0.op_class::SimdShift                     0      0.00%     77.50% # Class of executed instruction
system.cpu0.op_class::SimdShiftAcc                  0      0.00%     77.50% # Class of executed instruction
system.cpu0.op_class::SimdDiv                       0      0.00%     77.50% # Class of executed instruction
system.cpu0.op_class::SimdSqrt                      0      0.00%     77.50% # Class of executed instruction
system.cpu0.op_class::SimdFloatAdd                  0      0.00%     77.50% # Class of executed instruction
system.cpu0.op_class::SimdFloatAlu                  0      0.00%     77.50% # Class of executed instruction
system.cpu0.op_class::SimdFloatCmp                  0      0.00%     77.50% # Class of executed instruction
system.cpu0.op_class::SimdFloatCvt                  5      0.01%     77.51% # Class of executed instruction
system.cpu0.op_class::SimdFloatDiv                  0      0.00%     77.51% # Class of executed instruction
system.cpu0.op_class::SimdFloatMisc                 0      0.00%     77.51% # Class of executed instruction
system.cpu0.op_class::SimdFloatMult                 2      0.00%     77.51% # Class of executed instruction
system.cpu0.op_class::SimdFloatMultAcc              0      0.00%     77.51% # Class of executed instruction
system.cpu0.op_class::SimdFloatSqrt                 0      0.00%     77.51% # Class of executed instruction
system.cpu0.op_class::SimdReduceAdd                 0      0.00%     77.51% # Class of executed instruction
system.cpu0.op_class::SimdReduceAlu                 0      0.00%     77.51% # Class of executed instruction
system.cpu0.op_class::SimdReduceCmp                 0      0.00%     77.51% # Class of executed instruction
system.cpu0.op_class::SimdFloatReduceAdd            0      0.00%     77.51% # Class of executed instruction
system.cpu0.op_class::SimdFloatReduceCmp            0      0.00%     77.51% # Class of executed instruction
system.cpu0.op_class::SimdAes                       0      0.00%     77.51% # Class of executed instruction
system.cpu0.op_class::SimdAesMix                    0      0.00%     77.51% # Class of executed instruction
system.cpu0.op_class::SimdSha1Hash                  0      0.00%     77.51% # Class of executed instruction
system.cpu0.op_class::SimdSha1Hash2                 0      0.00%     77.51% # Class of executed instruction
system.cpu0.op_class::SimdSha256Hash                0      0.00%     77.51% # Class of executed instruction
system.cpu0.op_class::SimdSha256Hash2               0      0.00%     77.51% # Class of executed instruction
system.cpu0.op_class::SimdShaSigma2                 0      0.00%     77.51% # Class of executed instruction
system.cpu0.op_class::SimdShaSigma3                 0      0.00%     77.51% # Class of executed instruction
system.cpu0.op_class::SimdPredAlu                   0      0.00%     77.51% # Class of executed instruction
system.cpu0.op_class::MemRead                    5514     11.09%     88.60% # Class of executed instruction
system.cpu0.op_class::MemWrite                   4065      8.18%     96.78% # Class of executed instruction
system.cpu0.op_class::FloatMemRead                286      0.58%     97.36% # Class of executed instruction
system.cpu0.op_class::FloatMemWrite              1314      2.64%    100.00% # Class of executed instruction
system.cpu0.op_class::IprAccess                     0      0.00%    100.00% # Class of executed instruction
system.cpu0.op_class::InstPrefetch                  0      0.00%    100.00% # Class of executed instruction
system.cpu0.op_class::total                     49709                       # Class of executed instruction
system.cpu0.workload.numSyscalls                   41                       # Number of system calls
system.cpu1.Branches                           657117                       # Number of branches fetched
system.cpu1.committedInsts                   16609291                       # Number of instructions committed
system.cpu1.committedOps                     28394826                       # Number of ops (including micro ops) committed
system.cpu1.idle_fraction                    0.024516                       # Percentage of idle cycles
system.cpu1.not_idle_fraction                0.975484                       # Percentage of non-idle cycles
system.cpu1.numCycles                       587923854                       # number of cpu cycles simulated
system.cpu1.numWorkItemsCompleted                   0                       # number of work items this cpu completed
system.cpu1.numWorkItemsStarted                     0                       # number of work items this cpu started
system.cpu1.num_busy_cycles              573510029.289554                       # Number of busy cycles
system.cpu1.num_cc_register_reads             3195210                       # number of times the CC registers were read
system.cpu1.num_cc_register_writes            7906049                       # number of times the CC registers were written
system.cpu1.num_conditional_control_insts       616106                       # number of instructions that are conditional controls
system.cpu1.num_fp_alu_accesses                 20552                       # Number of float alu accesses
system.cpu1.num_fp_insts                        20552                       # number of float instructions
system.cpu1.num_fp_register_reads               25431                       # number of times the floating registers were read
system.cpu1.num_fp_register_writes              17513                       # number of times the floating registers were written
system.cpu1.num_func_calls                       1847                       # number of times a function call or return occured
system.cpu1.num_idle_cycles              14413824.710446                       # Number of idle cycles
system.cpu1.num_int_alu_accesses             28378131                       # Number of integer alu accesses
system.cpu1.num_int_insts                    28378131                       # number of integer instructions
system.cpu1.num_int_register_reads           71364797                       # number of times the integer registers were read
system.cpu1.num_int_register_writes          24971355                       # number of times the integer registers were written
system.cpu1.num_load_insts                    8320126                       # Number of load instructions
system.cpu1.num_mem_refs                     12168926                       # number of memory refs
system.cpu1.num_store_insts                   3848800                       # Number of store instructions
system.cpu1.num_vec_alu_accesses                    0                       # Number of vector alu accesses
system.cpu1.num_vec_insts                           0                       # number of vector instructions
system.cpu1.num_vec_register_reads                  0                       # number of times the vector registers were read
system.cpu1.num_vec_register_writes                 0                       # number of times the vector registers were written
system.cpu1.op_class::No_OpClass                 3976      0.01%      0.01% # Class of executed instruction
system.cpu1.op_class::IntAlu                 15123935     53.26%     53.28% # Class of executed instruction
system.cpu1.op_class::IntMult                 1068751      3.76%     57.04% # Class of executed instruction
system.cpu1.op_class::IntDiv                    16496      0.06%     57.10% # Class of executed instruction
system.cpu1.op_class::FloatAdd                   3826      0.01%     57.11% # Class of executed instruction
system.cpu1.op_class::FloatCmp                      0      0.00%     57.11% # Class of executed instruction
system.cpu1.op_class::FloatCvt                      0      0.00%     57.11% # Class of executed instruction
system.cpu1.op_class::FloatMult                     0      0.00%     57.11% # Class of executed instruction
system.cpu1.op_class::FloatMultAcc                  0      0.00%     57.11% # Class of executed instruction
system.cpu1.op_class::FloatDiv                      0      0.00%     57.11% # Class of executed instruction
system.cpu1.op_class::FloatMisc                     0      0.00%     57.11% # Class of executed instruction
system.cpu1.op_class::FloatSqrt                     0      0.00%     57.11% # Class of executed instruction
system.cpu1.op_class::SimdAdd                       0      0.00%     57.11% # Class of executed instruction
system.cpu1.op_class::SimdAddAcc                    0      0.00%     57.11% # Class of executed instruction
system.cpu1.op_class::SimdAlu                     898      0.00%     57.12% # Class of executed instruction
system.cpu1.op_class::SimdCmp                       0      0.00%     57.12% # Class of executed instruction
system.cpu1.op_class::SimdCvt                      20      0.00%     57.12% # Class of executed instruction
system.cpu1.op_class::SimdMisc                   1248      0.00%     57.12% # Class of executed instruction
system.cpu1.op_class::SimdMult                      0      0.00%     57.12% # Class of executed instruction
system.cpu1.op_class::SimdMultAcc                   0      0.00%     57.12% # Class of executed instruction
system.cpu1.op_class::SimdShift                     0      0.00%     57.12% # Class of executed instruction
system.cpu1.op_class::SimdShiftAcc                  0      0.00%     57.12% # Class of executed instruction
system.cpu1.op_class::SimdDiv                       0      0.00%     57.12% # Class of executed instruction
system.cpu1.op_class::SimdSqrt                      0      0.00%     57.12% # Class of executed instruction
system.cpu1.op_class::SimdFloatAdd               2320      0.01%     57.13% # Class of executed instruction
system.cpu1.op_class::SimdFloatAlu                  0      0.00%     57.13% # Class of executed instruction
system.cpu1.op_class::SimdFloatCmp                  0      0.00%     57.13% # Class of executed instruction
system.cpu1.op_class::SimdFloatCvt               1504      0.01%     57.13% # Class of executed instruction
system.cpu1.op_class::SimdFloatDiv                232      0.00%     57.13% # Class of executed instruction
system.cpu1.op_class::SimdFloatMisc                 0      0.00%     57.13% # Class of executed instruction
system.cpu1.op_class::SimdFloatMult              2724      0.01%     57.14% # Class of executed instruction
system.cpu1.op_class::SimdFloatMultAcc              0      0.00%     57.14% # Class of executed instruction
system.cpu1.op_class::SimdFloatSqrt                 0      0.00%     57.14% # Class of executed instruction
system.cpu1.op_class::SimdReduceAdd                 0      0.00%     57.14% # Class of executed instruction
system.cpu1.op_class::SimdReduceAlu                 0      0.00%     57.14% # Class of executed instruction
system.cpu1.op_class::SimdReduceCmp                 0      0.00%     57.14% # Class of executed instruction
system.cpu1.op_class::SimdFloatReduceAdd            0      0.00%     57.14% # Class of executed instruction
system.cpu1.op_class::SimdFloatReduceCmp            0      0.00%     57.14% # Class of executed instruction
system.cpu1.op_class::SimdAes                       0      0.00%     57.14% # Class of executed instruction
system.cpu1.op_class::SimdAesMix                    0      0.00%     57.14% # Class of executed instruction
system.cpu1.op_class::SimdSha1Hash                  0      0.00%     57.14% # Class of executed instruction
system.cpu1.op_class::SimdSha1Hash2                 0      0.00%     57.14% # Class of executed instruction
system.cpu1.op_class::SimdSha256Hash                0      0.00%     57.14% # Class of executed instruction
system.cpu1.op_class::SimdSha256Hash2               0      0.00%     57.14% # Class of executed instruction
system.cpu1.op_class::SimdShaSigma2                 0      0.00%     57.14% # Class of executed instruction
system.cpu1.op_class::SimdShaSigma3                 0      0.00%     57.14% # Class of executed instruction
system.cpu1.op_class::SimdPredAlu                   0      0.00%     57.14% # Class of executed instruction
system.cpu1.op_class::MemRead                 8314905     29.28%     86.43% # Class of executed instruction
system.cpu1.op_class::MemWrite                3847173     13.55%     99.98% # Class of executed instruction
system.cpu1.op_class::FloatMemRead               5221      0.02%     99.99% # Class of executed instruction
system.cpu1.op_class::FloatMemWrite              1627      0.01%    100.00% # Class of executed instruction
system.cpu1.op_class::IprAccess                     0      0.00%    100.00% # Class of executed instruction
system.cpu1.op_class::InstPrefetch                  0      0.00%    100.00% # Class of executed instruction
system.cpu1.op_class::total                  28394856                       # Class of executed instruction
system.cpu2.Branches                           657089                       # Number of branches fetched
system.cpu2.committedInsts                   16609115                       # Number of instructions committed
system.cpu2.committedOps                     28394513                       # Number of ops (including micro ops) committed
system.cpu2.idle_fraction                    0.030479                       # Percentage of idle cycles
system.cpu2.not_idle_fraction                0.969521                       # Percentage of non-idle cycles
system.cpu2.numCycles                       584367448                       # number of cpu cycles simulated
system.cpu2.numWorkItemsCompleted                   0                       # number of work items this cpu completed
system.cpu2.numWorkItemsStarted                     0                       # number of work items this cpu started
system.cpu2.num_busy_cycles              566556689.637420                       # Number of busy cycles
system.cpu2.num_cc_register_reads             3195141                       # number of times the CC registers were read
system.cpu2.num_cc_register_writes            7905991                       # number of times the CC registers were written
system.cpu2.num_conditional_control_insts       616092                       # number of instructions that are conditional controls
system.cpu2.num_fp_alu_accesses                 20468                       # Number of float alu accesses
system.cpu2.num_fp_insts                        20468                       # number of float instructions
system.cpu2.num_fp_register_reads               25300                       # number of times the floating registers were read
system.cpu2.num_fp_register_writes              17432                       # number of times the floating registers were written
system.cpu2.num_func_calls                       1835                       # number of times a function call or return occured
system.cpu2.num_idle_cycles              17810758.362580                       # Number of idle cycles
system.cpu2.num_int_alu_accesses             28377895                       # Number of integer alu accesses
system.cpu2.num_int_insts                    28377895                       # number of integer instructions
system.cpu2.num_int_register_reads           71364353                       # number of times the integer registers were read
system.cpu2.num_int_register_writes          24971206                       # number of times the integer registers were written
system.cpu2.num_load_insts                    8320083                       # Number of load instructions
system.cpu2.num_mem_refs                     12168862                       # number of memory refs
system.cpu2.num_store_insts                   3848779                       # Number of store instructions
system.cpu2.num_vec_alu_accesses                    0                       # Number of vector alu accesses
system.cpu2.num_vec_insts                           0                       # number of vector instructions
system.cpu2.num_vec_register_reads                  0                       # number of times the vector registers were read
system.cpu2.num_vec_register_writes                 0                       # number of times the vector registers were written
system.cpu2.op_class::No_OpClass                 3972      0.01%      0.01% # Class of executed instruction
system.cpu2.op_class::IntAlu                 15123744     53.26%     53.28% # Class of executed instruction
system.cpu2.op_class::IntMult                 1068751      3.76%     57.04% # Class of executed instruction
system.cpu2.op_class::IntDiv                    16504      0.06%     57.10% # Class of executed instruction
system.cpu2.op_class::FloatAdd                   3808      0.01%     57.11% # Class of executed instruction
system.cpu2.op_class::FloatCmp                      0      0.00%     57.11% # Class of executed instruction
system.cpu2.op_class::FloatCvt                      0      0.00%     57.11% # Class of executed instruction
system.cpu2.op_class::FloatMult                     0      0.00%     57.11% # Class of executed instruction
system.cpu2.op_class::FloatMultAcc                  0      0.00%     57.11% # Class of executed instruction
system.cpu2.op_class::FloatDiv                      0      0.00%     57.11% # Class of executed instruction
system.cpu2.op_class::FloatMisc                     0      0.00%     57.11% # Class of executed instruction
system.cpu2.op_class::FloatSqrt                     0      0.00%     57.11% # Class of executed instruction
system.cpu2.op_class::SimdAdd                       0      0.00%     57.11% # Class of executed instruction
system.cpu2.op_class::SimdAddAcc                    0      0.00%     57.11% # Class of executed instruction
system.cpu2.op_class::SimdAlu                     898      0.00%     57.12% # Class of executed instruction
system.cpu2.op_class::SimdCmp                       0      0.00%     57.12% # Class of executed instruction
system.cpu2.op_class::SimdCvt                      20      0.00%     57.12% # Class of executed instruction
system.cpu2.op_class::SimdMisc                   1242      0.00%     57.12% # Class of executed instruction
system.cpu2.op_class::SimdMult                      0      0.00%     57.12% # Class of executed instruction
system.cpu2.op_class::SimdMultAcc                   0      0.00%     57.12% # Class of executed instruction
system.cpu2.op_class::SimdShift                     0      0.00%     57.12% # Class of executed instruction
system.cpu2.op_class::SimdShiftAcc                  0      0.00%     57.12% # Class of executed instruction
system.cpu2.op_class::SimdDiv                       0      0.00%     57.12% # Class of executed instruction
system.cpu2.op_class::SimdSqrt                      0      0.00%     57.12% # Class of executed instruction
system.cpu2.op_class::SimdFloatAdd               2302      0.01%     57.13% # Class of executed instruction
system.cpu2.op_class::SimdFloatAlu                  0      0.00%     57.13% # Class of executed instruction
system.cpu2.op_class::SimdFloatCmp                  0      0.00%     57.13% # Class of executed instruction
system.cpu2.op_class::SimdFloatCvt               1504      0.01%     57.13% # Class of executed instruction
system.cpu2.op_class::SimdFloatDiv                232      0.00%     57.13% # Class of executed instruction
system.cpu2.op_class::SimdFloatMisc                 0      0.00%     57.13% # Class of executed instruction
system.cpu2.op_class::SimdFloatMult              2704      0.01%     57.14% # Class of executed instruction
system.cpu2.op_class::SimdFloatMultAcc              0      0.00%     57.14% # Class of executed instruction
system.cpu2.op_class::SimdFloatSqrt                 0      0.00%     57.14% # Class of executed instruction
system.cpu2.op_class::SimdReduceAdd                 0      0.00%     57.14% # Class of executed instruction
system.cpu2.op_class::SimdReduceAlu                 0      0.00%     57.14% # Class of executed instruction
system.cpu2.op_class::SimdReduceCmp                 0      0.00%     57.14% # Class of executed instruction
system.cpu2.op_class::SimdFloatReduceAdd            0      0.00%     57.14% # Class of executed instruction
system.cpu2.op_class::SimdFloatReduceCmp            0      0.00%     57.14% # Class of executed instruction
system.cpu2.op_class::SimdAes                       0      0.00%     57.14% # Class of executed instruction
system.cpu2.op_class::SimdAesMix                    0      0.00%     57.14% # Class of executed instruction
system.cpu2.op_class::SimdSha1Hash                  0      0.00%     57.14% # Class of executed instruction
system.cpu2.op_class::SimdSha1Hash2                 0      0.00%     57.14% # Class of executed instruction
system.cpu2.op_class::SimdSha256Hash                0      0.00%     57.14% # Class of executed instruction
system.cpu2.op_class::SimdSha256Hash2               0      0.00%     57.14% # Class of executed instruction
system.cpu2.op_class::SimdShaSigma2                 0      0.00%     57.14% # Class of executed instruction
system.cpu2.op_class::SimdShaSigma3                 0      0.00%     57.14% # Class of executed instruction
system.cpu2.op_class::SimdPredAlu                   0      0.00%     57.14% # Class of executed instruction
system.cpu2.op_class::MemRead                 8314878     29.28%     86.43% # Class of executed instruction
system.cpu2.op_class::MemWrite                3847153     13.55%     99.98% # Class of executed instruction
system.cpu2.op_class::FloatMemRead               5205      0.02%     99.99% # Class of executed instruction
system.cpu2.op_class::FloatMemWrite              1626      0.01%    100.00% # Class of executed instruction
system.cpu2.op_class::IprAccess                     0      0.00%    100.00% # Class of executed instruction
system.cpu2.op_class::InstPrefetch                  0      0.00%    100.00% # Class of executed instruction
system.cpu2.op_class::total                  28394543                       # Class of executed instruction
system.cpu3.Branches                          1401618                       # Number of branches fetched
system.cpu3.committedInsts                   20864880                       # Number of instructions committed
system.cpu3.committedOps                     36178573                       # Number of ops (including micro ops) committed
system.cpu3.idle_fraction                    0.000379                       # Percentage of idle cycles
system.cpu3.not_idle_fraction                0.999621                       # Percentage of non-idle cycles
system.cpu3.numCycles                       591996325                       # number of cpu cycles simulated
system.cpu3.numWorkItemsCompleted                   0                       # number of work items this cpu completed
system.cpu3.numWorkItemsStarted                     0                       # number of work items this cpu started
system.cpu3.num_busy_cycles              591772145.466244                       # Number of busy cycles
system.cpu3.num_cc_register_reads             6154848                       # number of times the CC registers were read
system.cpu3.num_cc_register_writes           10261958                       # number of times the CC registers were written
system.cpu3.num_conditional_control_insts      1036958                       # number of instructions that are conditional controls
system.cpu3.num_fp_alu_accesses                 22552                       # Number of float alu accesses
system.cpu3.num_fp_insts                        22552                       # number of float instructions
system.cpu3.num_fp_register_reads               28296                       # number of times the floating registers were read
system.cpu3.num_fp_register_writes              19016                       # number of times the floating registers were written
system.cpu3.num_func_calls                     194935                       # number of times a function call or return occured
system.cpu3.num_idle_cycles              224179.533756                       # Number of idle cycles
system.cpu3.num_int_alu_accesses             36137470                       # Number of integer alu accesses
system.cpu3.num_int_insts                    36137470                       # number of integer instructions
system.cpu3.num_int_register_reads           87527786                       # number of times the integer registers were read
system.cpu3.num_int_register_writes          31489147                       # number of times the integer registers were written
system.cpu3.num_load_insts                    9398442                       # Number of load instructions
system.cpu3.num_mem_refs                     13815859                       # number of memory refs
system.cpu3.num_store_insts                   4417417                       # Number of store instructions
system.cpu3.num_vec_alu_accesses                    0                       # Number of vector alu accesses
system.cpu3.num_vec_insts                           0                       # number of vector instructions
system.cpu3.num_vec_register_reads                  0                       # number of times the vector registers were read
system.cpu3.num_vec_register_writes                 0                       # number of times the vector registers were written
system.cpu3.op_class::No_OpClass                27151      0.08%      0.08% # Class of executed instruction
system.cpu3.op_class::IntAlu                 21165714     58.50%     58.58% # Class of executed instruction
system.cpu3.op_class::IntMult                 1138215      3.15%     61.72% # Class of executed instruction
system.cpu3.op_class::IntDiv                    17564      0.05%     61.77% # Class of executed instruction
system.cpu3.op_class::FloatAdd                   3932      0.01%     61.78% # Class of executed instruction
system.cpu3.op_class::FloatCmp                      0      0.00%     61.78% # Class of executed instruction
system.cpu3.op_class::FloatCvt                      0      0.00%     61.78% # Class of executed instruction
system.cpu3.op_class::FloatMult                     0      0.00%     61.78% # Class of executed instruction
system.cpu3.op_class::FloatMultAcc                  0      0.00%     61.78% # Class of executed instruction
system.cpu3.op_class::FloatDiv                      0      0.00%     61.78% # Class of executed instruction
system.cpu3.op_class::FloatMisc                     0      0.00%     61.78% # Class of executed instruction
system.cpu3.op_class::FloatSqrt                     0      0.00%     61.78% # Class of executed instruction
system.cpu3.op_class::SimdAdd                       0      0.00%     61.78% # Class of executed instruction
system.cpu3.op_class::SimdAddAcc                    0      0.00%     61.78% # Class of executed instruction
system.cpu3.op_class::SimdAlu                    1654      0.00%     61.79% # Class of executed instruction
system.cpu3.op_class::SimdCmp                       0      0.00%     61.79% # Class of executed instruction
system.cpu3.op_class::SimdCvt                     210      0.00%     61.79% # Class of executed instruction
system.cpu3.op_class::SimdMisc                   1557      0.00%     61.79% # Class of executed instruction
system.cpu3.op_class::SimdMult                      0      0.00%     61.79% # Class of executed instruction
system.cpu3.op_class::SimdMultAcc                   0      0.00%     61.79% # Class of executed instruction
system.cpu3.op_class::SimdShift                     0      0.00%     61.79% # Class of executed instruction
system.cpu3.op_class::SimdShiftAcc                  0      0.00%     61.79% # Class of executed instruction
system.cpu3.op_class::SimdDiv                       0      0.00%     61.79% # Class of executed instruction
system.cpu3.op_class::SimdSqrt                      0      0.00%     61.79% # Class of executed instruction
system.cpu3.op_class::SimdFloatAdd               2310      0.01%     61.80% # Class of executed instruction
system.cpu3.op_class::SimdFloatAlu                  0      0.00%     61.80% # Class of executed instruction
system.cpu3.op_class::SimdFloatCmp                  0      0.00%     61.80% # Class of executed instruction
system.cpu3.op_class::SimdFloatCvt               1497      0.00%     61.80% # Class of executed instruction
system.cpu3.op_class::SimdFloatDiv                231      0.00%     61.80% # Class of executed instruction
system.cpu3.op_class::SimdFloatMisc                 0      0.00%     61.80% # Class of executed instruction
system.cpu3.op_class::SimdFloatMult              2712      0.01%     61.81% # Class of executed instruction
system.cpu3.op_class::SimdFloatMultAcc              0      0.00%     61.81% # Class of executed instruction
system.cpu3.op_class::SimdFloatSqrt                 0      0.00%     61.81% # Class of executed instruction
system.cpu3.op_class::SimdReduceAdd                 0      0.00%     61.81% # Class of executed instruction
system.cpu3.op_class::SimdReduceAlu                 0      0.00%     61.81% # Class of executed instruction
system.cpu3.op_class::SimdReduceCmp                 0      0.00%     61.81% # Class of executed instruction
system.cpu3.op_class::SimdFloatReduceAdd            0      0.00%     61.81% # Class of executed instruction
system.cpu3.op_class::SimdFloatReduceCmp            0      0.00%     61.81% # Class of executed instruction
system.cpu3.op_class::SimdAes                       0      0.00%     61.81% # Class of executed instruction
system.cpu3.op_class::SimdAesMix                    0      0.00%     61.81% # Class of executed instruction
system.cpu3.op_class::SimdSha1Hash                  0      0.00%     61.81% # Class of executed instruction
system.cpu3.op_class::SimdSha1Hash2                 0      0.00%     61.81% # Class of executed instruction
system.cpu3.op_class::SimdSha256Hash                0      0.00%     61.81% # Class of executed instruction
system.cpu3.op_class::SimdSha256Hash2               0      0.00%     61.81% # Class of executed instruction
system.cpu3.op_class::SimdShaSigma2                 0      0.00%     61.81% # Class of executed instruction
system.cpu3.op_class::SimdShaSigma3                 0      0.00%     61.81% # Class of executed instruction
system.cpu3.op_class::SimdPredAlu                   0      0.00%     61.81% # Class of executed instruction
system.cpu3.op_class::MemRead                 9392987     25.96%     87.77% # Class of executed instruction
system.cpu3.op_class::MemWrite                4415477     12.20%     99.98% # Class of executed instruction
system.cpu3.op_class::FloatMemRead               5455      0.02%     99.99% # Class of executed instruction
system.cpu3.op_class::FloatMemWrite              1940      0.01%    100.00% # Class of executed instruction
system.cpu3.op_class::IprAccess                     0      0.00%    100.00% # Class of executed instruction
system.cpu3.op_class::InstPrefetch                  0      0.00%    100.00% # Class of executed instruction
system.cpu3.op_class::total                  36178606                       # Class of executed instruction
system.noc_network.Directory.incomplete_times_seqr        11308                      
system.noc_network.Directory.miss_latency_hist_seqr.first_response_to_completion::bucket_size            8                      
system.noc_network.Directory.miss_latency_hist_seqr.first_response_to_completion::max_bucket           79                      
system.noc_network.Directory.miss_latency_hist_seqr.first_response_to_completion::samples            1                      
system.noc_network.Directory.miss_latency_hist_seqr.first_response_to_completion::mean           64                      
system.noc_network.Directory.miss_latency_hist_seqr.first_response_to_completion::gmean    64.000000                      
system.noc_network.Directory.miss_latency_hist_seqr.first_response_to_completion::stdev          nan                      
system.noc_network.Directory.miss_latency_hist_seqr.first_response_to_completion |           0      0.00%      0.00% |           0      0.00%      0.00% |           0      0.00%      0.00% |           0      0.00%      0.00% |           0      0.00%      0.00% |           0      0.00%      0.00% |           0      0.00%      0.00% |           0      0.00%      0.00% |           1    100.00%    100.00% |           0      0.00%    100.00%
system.noc_network.Directory.miss_latency_hist_seqr.first_response_to_completion::total            1                      
system.noc_network.Directory.miss_latency_hist_seqr.forward_to_first_response::bucket_size            1                      
system.noc_network.Directory.miss_latency_hist_seqr.forward_to_first_response::max_bucket            9                      
system.noc_network.Directory.miss_latency_hist_seqr.forward_to_first_response::samples            1                      
system.noc_network.Directory.miss_latency_hist_seqr.forward_to_first_response::stdev          nan                      
system.noc_network.Directory.miss_latency_hist_seqr.forward_to_first_response |           1    100.00%    100.00% |           0      0.00%    100.00% |           0      0.00%    100.00% |           0      0.00%    100.00% |           0      0.00%    100.00% |           0      0.00%    100.00% |           0      0.00%    100.00% |           0      0.00%    100.00% |           0      0.00%    100.00% |           0      0.00%    100.00%
system.noc_network.Directory.miss_latency_hist_seqr.forward_to_first_response::total            1                      
system.noc_network.Directory.miss_latency_hist_seqr.initial_to_forward::bucket_size            1                      
system.noc_network.Directory.miss_latency_hist_seqr.initial_to_forward::max_bucket            9                      
system.noc_network.Directory.miss_latency_hist_seqr.initial_to_forward::samples            1                      
system.noc_network.Directory.miss_latency_hist_seqr.initial_to_forward::stdev          nan                      
system.noc_network.Directory.miss_latency_hist_seqr.initial_to_forward |           1    100.00%    100.00% |           0      0.00%    100.00% |           0      0.00%    100.00% |           0      0.00%    100.00% |           0      0.00%    100.00% |           0      0.00%    100.00% |           0      0.00%    100.00% |           0      0.00%    100.00% |           0      0.00%    100.00% |           0      0.00%    100.00%
system.noc_network.Directory.miss_latency_hist_seqr.initial_to_forward::total            1                      
system.noc_network.Directory.miss_latency_hist_seqr.issue_to_initial_request::bucket_size            1                      
system.noc_network.Directory.miss_latency_hist_seqr.issue_to_initial_request::max_bucket            9                      
system.noc_network.Directory.miss_latency_hist_seqr.issue_to_initial_request::samples            1                      
system.noc_network.Directory.miss_latency_hist_seqr.issue_to_initial_request::stdev          nan                      
system.noc_network.Directory.miss_latency_hist_seqr.issue_to_initial_request |           1    100.00%    100.00% |           0      0.00%    100.00% |           0      0.00%    100.00% |           0      0.00%    100.00% |           0      0.00%    100.00% |           0      0.00%    100.00% |           0      0.00%    100.00% |           0      0.00%    100.00% |           0      0.00%    100.00% |           0      0.00%    100.00%
system.noc_network.Directory.miss_latency_hist_seqr.issue_to_initial_request::total            1                      
system.noc_network.Directory.miss_mach_latency_hist_seqr::bucket_size            8                      
system.noc_network.Directory.miss_mach_latency_hist_seqr::max_bucket           79                      
system.noc_network.Directory.miss_mach_latency_hist_seqr::samples        11309                      
system.noc_network.Directory.miss_mach_latency_hist_seqr::mean     0.005659                      
system.noc_network.Directory.miss_mach_latency_hist_seqr::stdev     0.601822                      
system.noc_network.Directory.miss_mach_latency_hist_seqr |       11308     99.99%     99.99% |           0      0.00%     99.99% |           0      0.00%     99.99% |           0      0.00%     99.99% |           0      0.00%     99.99% |           0      0.00%     99.99% |           0      0.00%     99.99% |           0      0.00%     99.99% |           1      0.01%    100.00% |           0      0.00%    100.00%
system.noc_network.Directory.miss_mach_latency_hist_seqr::total        11309                      
system.noc_network.Directory_Controller.GETX |    21416790     91.25%     91.25% |     2052859      8.75%    100.00%
system.noc_network.Directory_Controller.GETX::total     23469649                      
system.noc_network.Directory_Controller.I.GETX |       10581     93.56%     93.56% |         728      6.44%    100.00%
system.noc_network.Directory_Controller.I.GETX::total        11309                      
system.noc_network.Directory_Controller.IM.GETX |           3    100.00%    100.00% |           0      0.00%    100.00%
system.noc_network.Directory_Controller.IM.GETX::total            3                      
system.noc_network.Directory_Controller.IM.Memory_Data |       10581     93.56%     93.56% |         728      6.44%    100.00%
system.noc_network.Directory_Controller.IM.Memory_Data::total        11309                      
system.noc_network.Directory_Controller.M.GETX |    21406206     91.25%     91.25% |     2052131      8.75%    100.00%
system.noc_network.Directory_Controller.M.GETX::total     23458337                      
system.noc_network.Directory_Controller.M.PUTX |       10080     94.40%     94.40% |         598      5.60%    100.00%
system.noc_network.Directory_Controller.M.PUTX::total        10678                      
system.noc_network.Directory_Controller.MI.Memory_Ack |       10080     94.40%     94.40% |         598      5.60%    100.00%
system.noc_network.Directory_Controller.MI.Memory_Ack::total        10678                      
system.noc_network.Directory_Controller.Memory_Ack |       10080     94.40%     94.40% |         598      5.60%    100.00%
system.noc_network.Directory_Controller.Memory_Ack::total        10678                      
system.noc_network.Directory_Controller.Memory_Data |       10581     93.56%     93.56% |         728      6.44%    100.00%
system.noc_network.Directory_Controller.Memory_Data::total        11309                      
system.noc_network.Directory_Controller.PUTX |       10080     94.40%     94.40% |         598      5.60%    100.00%
system.noc_network.Directory_Controller.PUTX::total        10678                      
system.noc_network.IFETCH.Directory.miss_type_mach_latency_hist_seqr::bucket_size            8                      
system.noc_network.IFETCH.Directory.miss_type_mach_latency_hist_seqr::max_bucket           79                      
system.noc_network.IFETCH.Directory.miss_type_mach_latency_hist_seqr::samples         1605                      
system.noc_network.IFETCH.Directory.miss_type_mach_latency_hist_seqr::mean     0.039875                      
system.noc_network.IFETCH.Directory.miss_type_mach_latency_hist_seqr::stdev     1.597506                      
system.noc_network.IFETCH.Directory.miss_type_mach_latency_hist_seqr |        1604     99.94%     99.94% |           0      0.00%     99.94% |           0      0.00%     99.94% |           0      0.00%     99.94% |           0      0.00%     99.94% |           0      0.00%     99.94% |           0      0.00%     99.94% |           0      0.00%     99.94% |           1      0.06%    100.00% |           0      0.00%    100.00%
system.noc_network.IFETCH.Directory.miss_type_mach_latency_hist_seqr::total         1605                      
system.noc_network.IFETCH.L1Cache.miss_type_mach_latency_hist_seqr::bucket_size            1                      
system.noc_network.IFETCH.L1Cache.miss_type_mach_latency_hist_seqr::max_bucket            9                      
system.noc_network.IFETCH.L1Cache.miss_type_mach_latency_hist_seqr::samples     21395552                      
system.noc_network.IFETCH.L1Cache.miss_type_mach_latency_hist_seqr |    21395552    100.00%    100.00% |           0      0.00%    100.00% |           0      0.00%    100.00% |           0      0.00%    100.00% |           0      0.00%    100.00% |           0      0.00%    100.00% |           0      0.00%    100.00% |           0      0.00%    100.00% |           0      0.00%    100.00% |           0      0.00%    100.00%
system.noc_network.IFETCH.L1Cache.miss_type_mach_latency_hist_seqr::total     21395552                      
system.noc_network.IFETCH.hit_latency_hist_seqr::bucket_size            1                      
system.noc_network.IFETCH.hit_latency_hist_seqr::max_bucket            9                      
system.noc_network.IFETCH.hit_latency_hist_seqr::samples     48997529                      
system.noc_network.IFETCH.hit_latency_hist_seqr |    48997529    100.00%    100.00% |           0      0.00%    100.00% |           0      0.00%    100.00% |           0      0.00%    100.00% |           0      0.00%    100.00% |           0      0.00%    100.00% |           0      0.00%    100.00% |           0      0.00%    100.00% |           0      0.00%    100.00% |           0      0.00%    100.00%
system.noc_network.IFETCH.hit_latency_hist_seqr::total     48997529                      
system.noc_network.IFETCH.latency_hist_seqr::bucket_size            8                      
system.noc_network.IFETCH.latency_hist_seqr::max_bucket           79                      
system.noc_network.IFETCH.latency_hist_seqr::samples     70394686                      
system.noc_network.IFETCH.latency_hist_seqr::mean     0.000001                      
system.noc_network.IFETCH.latency_hist_seqr::stdev     0.007628                      
system.noc_network.IFETCH.latency_hist_seqr |    70394685    100.00%    100.00% |           0      0.00%    100.00% |           0      0.00%    100.00% |           0      0.00%    100.00% |           0      0.00%    100.00% |           0      0.00%    100.00% |           0      0.00%    100.00% |           0      0.00%    100.00% |           1      0.00%    100.00% |           0      0.00%    100.00%
system.noc_network.IFETCH.latency_hist_seqr::total     70394686                      
system.noc_network.IFETCH.miss_latency_hist_seqr::bucket_size            8                      
system.noc_network.IFETCH.miss_latency_hist_seqr::max_bucket           79                      
system.noc_network.IFETCH.miss_latency_hist_seqr::samples     21397157                      
system.noc_network.IFETCH.miss_latency_hist_seqr::mean     0.000003                      
system.noc_network.IFETCH.miss_latency_hist_seqr::stdev     0.013836                      
system.noc_network.IFETCH.miss_latency_hist_seqr |    21397156    100.00%    100.00% |           0      0.00%    100.00% |           0      0.00%    100.00% |           0      0.00%    100.00% |           0      0.00%    100.00% |           0      0.00%    100.00% |           0      0.00%    100.00% |           0      0.00%    100.00% |           1      0.00%    100.00% |           0      0.00%    100.00%
system.noc_network.IFETCH.miss_latency_hist_seqr::total     21397157                      
system.noc_network.L1Cache.incomplete_times_seqr     23458337                      
system.noc_network.L1Cache.miss_mach_latency_hist_seqr::bucket_size            1                      
system.noc_network.L1Cache.miss_mach_latency_hist_seqr::max_bucket            9                      
system.noc_network.L1Cache.miss_mach_latency_hist_seqr::samples     23458337                      
system.noc_network.L1Cache.miss_mach_latency_hist_seqr |    23458337    100.00%    100.00% |           0      0.00%    100.00% |           0      0.00%    100.00% |           0      0.00%    100.00% |           0      0.00%    100.00% |           0      0.00%    100.00% |           0      0.00%    100.00% |           0      0.00%    100.00% |           0      0.00%    100.00% |           0      0.00%    100.00%
system.noc_network.L1Cache.miss_mach_latency_hist_seqr::total     23458337                      
system.noc_network.L1Cache_Controller.Data |        1706      0.01%      0.01% |     7864116     33.51%     33.51% |     7747236     33.01%     66.52% |     7856588     33.48%    100.00%
system.noc_network.L1Cache_Controller.Data::total     23469646                      
system.noc_network.L1Cache_Controller.Fwd_GETX |         215      0.00%      0.00% |     7863785     33.52%     33.52% |     7746749     33.02%     66.55% |     7847588     33.45%    100.00%
system.noc_network.L1Cache_Controller.Fwd_GETX::total     23458337                      
system.noc_network.L1Cache_Controller.I.Ifetch |        1036      0.00%      0.00% |     7165154     33.49%     33.49% |     7063076     33.01%     66.50% |     7167891     33.50%    100.00%
system.noc_network.L1Cache_Controller.I.Ifetch::total     21397157                      
system.noc_network.L1Cache_Controller.I.Load |         355      0.02%      0.02% |      698727     33.74%     33.76% |      683936     33.03%     66.78% |      687929     33.22%    100.00%
system.noc_network.L1Cache_Controller.I.Load::total      2070947                      
system.noc_network.L1Cache_Controller.I.Replacement |          83      5.75%      5.75% |         586     40.61%     46.36% |         389     26.96%     73.32% |         385     26.68%    100.00%
system.noc_network.L1Cache_Controller.I.Replacement::total         1443                      
system.noc_network.L1Cache_Controller.I.Store |         315     20.43%     20.43% |         235     15.24%     35.67% |         224     14.53%     50.19% |         768     49.81%    100.00%
system.noc_network.L1Cache_Controller.I.Store::total         1542                      
system.noc_network.L1Cache_Controller.IM.Data |         315     20.43%     20.43% |         235     15.24%     35.67% |         224     14.53%     50.19% |         768     49.81%    100.00%
system.noc_network.L1Cache_Controller.IM.Data::total         1542                      
system.noc_network.L1Cache_Controller.IS.Data |        1391      0.01%      0.01% |     7863881     33.51%     33.51% |     7747012     33.01%     66.53% |     7855820     33.47%    100.00%
system.noc_network.L1Cache_Controller.IS.Data::total     23468104                      
system.noc_network.L1Cache_Controller.Ifetch |       34921      0.05%      0.05% |    21699455     30.83%     30.88% |    21699198     30.83%     61.70% |    26961112     38.30%    100.00%
system.noc_network.L1Cache_Controller.Ifetch::total     70394686                      
system.noc_network.L1Cache_Controller.Load |        5591      0.03%      0.03% |     6656189     31.78%     31.81% |     6656150     31.78%     63.59% |     7625907     36.41%    100.00%
system.noc_network.L1Cache_Controller.Load::total     20943837                      
system.noc_network.L1Cache_Controller.M.Fwd_GETX |         215      0.00%      0.00% |     7863785     33.52%     33.52% |     7746749     33.02%     66.55% |     7847588     33.45%    100.00%
system.noc_network.L1Cache_Controller.M.Fwd_GETX::total     23458337                      
system.noc_network.L1Cache_Controller.M.Ifetch |       33885      0.07%      0.07% |    14534301     29.66%     29.73% |    14636122     29.87%     59.60% |    19793221     40.40%    100.00%
system.noc_network.L1Cache_Controller.M.Ifetch::total     48997529                      
system.noc_network.L1Cache_Controller.M.Load |        5236      0.03%      0.03% |     5957462     31.57%     31.59% |     5972214     31.64%     63.24% |     6937978     36.76%    100.00%
system.noc_network.L1Cache_Controller.M.Load::total     18872890                      
system.noc_network.L1Cache_Controller.M.Replacement |        1236     11.58%     11.58% |         246      2.30%     13.88% |         418      3.91%     17.79% |        8778     82.21%    100.00%
system.noc_network.L1Cache_Controller.M.Replacement::total        10678                      
system.noc_network.L1Cache_Controller.M.Store |        5269      0.03%      0.03% |     5512667     32.01%     32.04% |     5512652     32.01%     64.06% |     6189359     35.94%    100.00%
system.noc_network.L1Cache_Controller.M.Store::total     17219947                      
system.noc_network.L1Cache_Controller.MI.Writeback_Ack |        1236     11.58%     11.58% |         246      2.30%     13.88% |         418      3.91%     17.79% |        8778     82.21%    100.00%
system.noc_network.L1Cache_Controller.MI.Writeback_Ack::total        10678                      
system.noc_network.L1Cache_Controller.Replacement |        1319     10.88%     10.88% |         832      6.86%     17.75% |         807      6.66%     24.40% |        9163     75.60%    100.00%
system.noc_network.L1Cache_Controller.Replacement::total        12121                      
system.noc_network.L1Cache_Controller.Store |        5584      0.03%      0.03% |     5512902     32.01%     32.04% |     5512876     32.01%     64.06% |     6190127     35.94%    100.00%
system.noc_network.L1Cache_Controller.Store::total     17221489                      
system.noc_network.L1Cache_Controller.Writeback_Ack |        1236     11.58%     11.58% |         246      2.30%     13.88% |         418      3.91%     17.79% |        8778     82.21%    100.00%
system.noc_network.L1Cache_Controller.Writeback_Ack::total        10678                      
system.noc_network.LD.Directory.miss_type_mach_latency_hist_seqr::bucket_size            1                      
system.noc_network.LD.Directory.miss_type_mach_latency_hist_seqr::max_bucket            9                      
system.noc_network.LD.Directory.miss_type_mach_latency_hist_seqr::samples         8498                      
system.noc_network.LD.Directory.miss_type_mach_latency_hist_seqr |        8498    100.00%    100.00% |           0      0.00%    100.00% |           0      0.00%    100.00% |           0      0.00%    100.00% |           0      0.00%    100.00% |           0      0.00%    100.00% |           0      0.00%    100.00% |           0      0.00%    100.00% |           0      0.00%    100.00% |           0      0.00%    100.00%
system.noc_network.LD.Directory.miss_type_mach_latency_hist_seqr::total         8498                      
system.noc_network.LD.L1Cache.miss_type_mach_latency_hist_seqr::bucket_size            1                      
system.noc_network.LD.L1Cache.miss_type_mach_latency_hist_seqr::max_bucket            9                      
system.noc_network.LD.L1Cache.miss_type_mach_latency_hist_seqr::samples      2062449                      
system.noc_network.LD.L1Cache.miss_type_mach_latency_hist_seqr |     2062449    100.00%    100.00% |           0      0.00%    100.00% |           0      0.00%    100.00% |           0      0.00%    100.00% |           0      0.00%    100.00% |           0      0.00%    100.00% |           0      0.00%    100.00% |           0      0.00%    100.00% |           0      0.00%    100.00% |           0      0.00%    100.00%
system.noc_network.LD.L1Cache.miss_type_mach_latency_hist_seqr::total      2062449                      
system.noc_network.LD.hit_latency_hist_seqr::bucket_size            1                      
system.noc_network.LD.hit_latency_hist_seqr::max_bucket            9                      
system.noc_network.LD.hit_latency_hist_seqr::samples     18872890                      
system.noc_network.LD.hit_latency_hist_seqr |    18872890    100.00%    100.00% |           0      0.00%    100.00% |           0      0.00%    100.00% |           0      0.00%    100.00% |           0      0.00%    100.00% |           0      0.00%    100.00% |           0      0.00%    100.00% |           0      0.00%    100.00% |           0      0.00%    100.00% |           0      0.00%    100.00%
system.noc_network.LD.hit_latency_hist_seqr::total     18872890                      
system.noc_network.LD.latency_hist_seqr::bucket_size            1                      
system.noc_network.LD.latency_hist_seqr::max_bucket            9                      
system.noc_network.LD.latency_hist_seqr::samples     20943837                      
system.noc_network.LD.latency_hist_seqr  |    20943837    100.00%    100.00% |           0      0.00%    100.00% |           0      0.00%    100.00% |           0      0.00%    100.00% |           0      0.00%    100.00% |           0      0.00%    100.00% |           0      0.00%    100.00% |           0      0.00%    100.00% |           0      0.00%    100.00% |           0      0.00%    100.00%
system.noc_network.LD.latency_hist_seqr::total     20943837                      
system.noc_network.LD.miss_latency_hist_seqr::bucket_size            1                      
system.noc_network.LD.miss_latency_hist_seqr::max_bucket            9                      
system.noc_network.LD.miss_latency_hist_seqr::samples      2070947                      
system.noc_network.LD.miss_latency_hist_seqr |     2070947    100.00%    100.00% |           0      0.00%    100.00% |           0      0.00%    100.00% |           0      0.00%    100.00% |           0      0.00%    100.00% |           0      0.00%    100.00% |           0      0.00%    100.00% |           0      0.00%    100.00% |           0      0.00%    100.00% |           0      0.00%    100.00%
system.noc_network.LD.miss_latency_hist_seqr::total      2070947                      
system.noc_network.Locked_RMW_Read.Directory.miss_type_mach_latency_hist_seqr::bucket_size            1                      
system.noc_network.Locked_RMW_Read.Directory.miss_type_mach_latency_hist_seqr::max_bucket            9                      
system.noc_network.Locked_RMW_Read.Directory.miss_type_mach_latency_hist_seqr::samples            5                      
system.noc_network.Locked_RMW_Read.Directory.miss_type_mach_latency_hist_seqr |           5    100.00%    100.00% |           0      0.00%    100.00% |           0      0.00%    100.00% |           0      0.00%    100.00% |           0      0.00%    100.00% |           0      0.00%    100.00% |           0      0.00%    100.00% |           0      0.00%    100.00% |           0      0.00%    100.00% |           0      0.00%    100.00%
system.noc_network.Locked_RMW_Read.Directory.miss_type_mach_latency_hist_seqr::total            5                      
system.noc_network.Locked_RMW_Read.L1Cache.miss_type_mach_latency_hist_seqr::bucket_size            1                      
system.noc_network.Locked_RMW_Read.L1Cache.miss_type_mach_latency_hist_seqr::max_bucket            9                      
system.noc_network.Locked_RMW_Read.L1Cache.miss_type_mach_latency_hist_seqr::samples           71                      
system.noc_network.Locked_RMW_Read.L1Cache.miss_type_mach_latency_hist_seqr |          71    100.00%    100.00% |           0      0.00%    100.00% |           0      0.00%    100.00% |           0      0.00%    100.00% |           0      0.00%    100.00% |           0      0.00%    100.00% |           0      0.00%    100.00% |           0      0.00%    100.00% |           0      0.00%    100.00% |           0      0.00%    100.00%
system.noc_network.Locked_RMW_Read.L1Cache.miss_type_mach_latency_hist_seqr::total           71                      
system.noc_network.Locked_RMW_Read.hit_latency_hist_seqr::bucket_size            1                      
system.noc_network.Locked_RMW_Read.hit_latency_hist_seqr::max_bucket            9                      
system.noc_network.Locked_RMW_Read.hit_latency_hist_seqr::samples          346                      
system.noc_network.Locked_RMW_Read.hit_latency_hist_seqr |         346    100.00%    100.00% |           0      0.00%    100.00% |           0      0.00%    100.00% |           0      0.00%    100.00% |           0      0.00%    100.00% |           0      0.00%    100.00% |           0      0.00%    100.00% |           0      0.00%    100.00% |           0      0.00%    100.00% |           0      0.00%    100.00%
system.noc_network.Locked_RMW_Read.hit_latency_hist_seqr::total          346                      
system.noc_network.Locked_RMW_Read.latency_hist_seqr::bucket_size            1                      
system.noc_network.Locked_RMW_Read.latency_hist_seqr::max_bucket            9                      
system.noc_network.Locked_RMW_Read.latency_hist_seqr::samples          422                      
system.noc_network.Locked_RMW_Read.latency_hist_seqr |         422    100.00%    100.00% |           0      0.00%    100.00% |           0      0.00%    100.00% |           0      0.00%    100.00% |           0      0.00%    100.00% |           0      0.00%    100.00% |           0      0.00%    100.00% |           0      0.00%    100.00% |           0      0.00%    100.00% |           0      0.00%    100.00%
system.noc_network.Locked_RMW_Read.latency_hist_seqr::total          422                      
system.noc_network.Locked_RMW_Read.miss_latency_hist_seqr::bucket_size            1                      
system.noc_network.Locked_RMW_Read.miss_latency_hist_seqr::max_bucket            9                      
system.noc_network.Locked_RMW_Read.miss_latency_hist_seqr::samples           76                      
system.noc_network.Locked_RMW_Read.miss_latency_hist_seqr |          76    100.00%    100.00% |           0      0.00%    100.00% |           0      0.00%    100.00% |           0      0.00%    100.00% |           0      0.00%    100.00% |           0      0.00%    100.00% |           0      0.00%    100.00% |           0      0.00%    100.00% |           0      0.00%    100.00% |           0      0.00%    100.00%
system.noc_network.Locked_RMW_Read.miss_latency_hist_seqr::total           76                      
system.noc_network.Locked_RMW_Write.hit_latency_hist_seqr::bucket_size            1                      
system.noc_network.Locked_RMW_Write.hit_latency_hist_seqr::max_bucket            9                      
system.noc_network.Locked_RMW_Write.hit_latency_hist_seqr::samples          422                      
system.noc_network.Locked_RMW_Write.hit_latency_hist_seqr |         422    100.00%    100.00% |           0      0.00%    100.00% |           0      0.00%    100.00% |           0      0.00%    100.00% |           0      0.00%    100.00% |           0      0.00%    100.00% |           0      0.00%    100.00% |           0      0.00%    100.00% |           0      0.00%    100.00% |           0      0.00%    100.00%
system.noc_network.Locked_RMW_Write.hit_latency_hist_seqr::total          422                      
system.noc_network.Locked_RMW_Write.latency_hist_seqr::bucket_size            1                      
system.noc_network.Locked_RMW_Write.latency_hist_seqr::max_bucket            9                      
system.noc_network.Locked_RMW_Write.latency_hist_seqr::samples          422                      
system.noc_network.Locked_RMW_Write.latency_hist_seqr |         422    100.00%    100.00% |           0      0.00%    100.00% |           0      0.00%    100.00% |           0      0.00%    100.00% |           0      0.00%    100.00% |           0      0.00%    100.00% |           0      0.00%    100.00% |           0      0.00%    100.00% |           0      0.00%    100.00% |           0      0.00%    100.00%
system.noc_network.Locked_RMW_Write.latency_hist_seqr::total          422                      
system.noc_network.RMW_Read.Directory.miss_type_mach_latency_hist_seqr::bucket_size            1                      
system.noc_network.RMW_Read.Directory.miss_type_mach_latency_hist_seqr::max_bucket            9                      
system.noc_network.RMW_Read.Directory.miss_type_mach_latency_hist_seqr::samples            7                      
system.noc_network.RMW_Read.Directory.miss_type_mach_latency_hist_seqr |           7    100.00%    100.00% |           0      0.00%    100.00% |           0      0.00%    100.00% |           0      0.00%    100.00% |           0      0.00%    100.00% |           0      0.00%    100.00% |           0      0.00%    100.00% |           0      0.00%    100.00% |           0      0.00%    100.00% |           0      0.00%    100.00%
system.noc_network.RMW_Read.Directory.miss_type_mach_latency_hist_seqr::total            7                      
system.noc_network.RMW_Read.hit_latency_hist_seqr::bucket_size            1                      
system.noc_network.RMW_Read.hit_latency_hist_seqr::max_bucket            9                      
system.noc_network.RMW_Read.hit_latency_hist_seqr::samples      5100484                      
system.noc_network.RMW_Read.hit_latency_hist_seqr |     5100484    100.00%    100.00% |           0      0.00%    100.00% |           0      0.00%    100.00% |           0      0.00%    100.00% |           0      0.00%    100.00% |           0      0.00%    100.00% |           0      0.00%    100.00% |           0      0.00%    100.00% |           0      0.00%    100.00% |           0      0.00%    100.00%
system.noc_network.RMW_Read.hit_latency_hist_seqr::total      5100484                      
system.noc_network.RMW_Read.latency_hist_seqr::bucket_size            1                      
system.noc_network.RMW_Read.latency_hist_seqr::max_bucket            9                      
system.noc_network.RMW_Read.latency_hist_seqr::samples      5100491                      
system.noc_network.RMW_Read.latency_hist_seqr |     5100491    100.00%    100.00% |           0      0.00%    100.00% |           0      0.00%    100.00% |           0      0.00%    100.00% |           0      0.00%    100.00% |           0      0.00%    100.00% |           0      0.00%    100.00% |           0      0.00%    100.00% |           0      0.00%    100.00% |           0      0.00%    100.00%
system.noc_network.RMW_Read.latency_hist_seqr::total      5100491                      
system.noc_network.RMW_Read.miss_latency_hist_seqr::bucket_size            1                      
system.noc_network.RMW_Read.miss_latency_hist_seqr::max_bucket            9                      
system.noc_network.RMW_Read.miss_latency_hist_seqr::samples            7                      
system.noc_network.RMW_Read.miss_latency_hist_seqr |           7    100.00%    100.00% |           0      0.00%    100.00% |           0      0.00%    100.00% |           0      0.00%    100.00% |           0      0.00%    100.00% |           0      0.00%    100.00% |           0      0.00%    100.00% |           0      0.00%    100.00% |           0      0.00%    100.00% |           0      0.00%    100.00%
system.noc_network.RMW_Read.miss_latency_hist_seqr::total            7                      
system.noc_network.ST.Directory.miss_type_mach_latency_hist_seqr::bucket_size            1                      
system.noc_network.ST.Directory.miss_type_mach_latency_hist_seqr::max_bucket            9                      
system.noc_network.ST.Directory.miss_type_mach_latency_hist_seqr::samples         1194                      
system.noc_network.ST.Directory.miss_type_mach_latency_hist_seqr |        1194    100.00%    100.00% |           0      0.00%    100.00% |           0      0.00%    100.00% |           0      0.00%    100.00% |           0      0.00%    100.00% |           0      0.00%    100.00% |           0      0.00%    100.00% |           0      0.00%    100.00% |           0      0.00%    100.00% |           0      0.00%    100.00%
system.noc_network.ST.Directory.miss_type_mach_latency_hist_seqr::total         1194                      
system.noc_network.ST.L1Cache.miss_type_mach_latency_hist_seqr::bucket_size            1                      
system.noc_network.ST.L1Cache.miss_type_mach_latency_hist_seqr::max_bucket            9                      
system.noc_network.ST.L1Cache.miss_type_mach_latency_hist_seqr::samples          265                      
system.noc_network.ST.L1Cache.miss_type_mach_latency_hist_seqr |         265    100.00%    100.00% |           0      0.00%    100.00% |           0      0.00%    100.00% |           0      0.00%    100.00% |           0      0.00%    100.00% |           0      0.00%    100.00% |           0      0.00%    100.00% |           0      0.00%    100.00% |           0      0.00%    100.00% |           0      0.00%    100.00%
system.noc_network.ST.L1Cache.miss_type_mach_latency_hist_seqr::total          265                      
system.noc_network.ST.hit_latency_hist_seqr::bucket_size            1                      
system.noc_network.ST.hit_latency_hist_seqr::max_bucket            9                      
system.noc_network.ST.hit_latency_hist_seqr::samples     12118695                      
system.noc_network.ST.hit_latency_hist_seqr |    12118695    100.00%    100.00% |           0      0.00%    100.00% |           0      0.00%    100.00% |           0      0.00%    100.00% |           0      0.00%    100.00% |           0      0.00%    100.00% |           0      0.00%    100.00% |           0      0.00%    100.00% |           0      0.00%    100.00% |           0      0.00%    100.00%
system.noc_network.ST.hit_latency_hist_seqr::total     12118695                      
system.noc_network.ST.latency_hist_seqr::bucket_size            1                      
system.noc_network.ST.latency_hist_seqr::max_bucket            9                      
system.noc_network.ST.latency_hist_seqr::samples     12120154                      
system.noc_network.ST.latency_hist_seqr  |    12120154    100.00%    100.00% |           0      0.00%    100.00% |           0      0.00%    100.00% |           0      0.00%    100.00% |           0      0.00%    100.00% |           0      0.00%    100.00% |           0      0.00%    100.00% |           0      0.00%    100.00% |           0      0.00%    100.00% |           0      0.00%    100.00%
system.noc_network.ST.latency_hist_seqr::total     12120154                      
system.noc_network.ST.miss_latency_hist_seqr::bucket_size            1                      
system.noc_network.ST.miss_latency_hist_seqr::max_bucket            9                      
system.noc_network.ST.miss_latency_hist_seqr::samples         1459                      
system.noc_network.ST.miss_latency_hist_seqr |        1459    100.00%    100.00% |           0      0.00%    100.00% |           0      0.00%    100.00% |           0      0.00%    100.00% |           0      0.00%    100.00% |           0      0.00%    100.00% |           0      0.00%    100.00% |           0      0.00%    100.00% |           0      0.00%    100.00% |           0      0.00%    100.00%
system.noc_network.ST.miss_latency_hist_seqr::total         1459                      
system.noc_network.delayHist::bucket_size            4                       # delay histogram for all message
system.noc_network.delayHist::max_bucket           39                       # delay histogram for all message
system.noc_network.delayHist::samples        46938661                       # delay histogram for all message
system.noc_network.delayHist::mean          13.765813                       # delay histogram for all message
system.noc_network.delayHist::gmean         12.783677                       # delay histogram for all message
system.noc_network.delayHist::stdev          5.590073                       # delay histogram for all message
system.noc_network.delayHist             |           0      0.00%      0.00% |     1355068      2.89%      2.89% |    24598863     52.41%     55.29% |     8460677     18.02%     73.32% |      763297      1.63%     74.94% |     8060852     17.17%     92.12% |     3019913      6.43%     98.55% |      413534      0.88%     99.43% |      266457      0.57%    100.00% |           0      0.00%    100.00% # delay histogram for all message
system.noc_network.delayHist::total          46938661                       # delay histogram for all message
system.noc_network.delayVCHist.vnet_1::bucket_size            2                       # delay histogram for vnet_1
system.noc_network.delayVCHist.vnet_1::max_bucket           19                       # delay histogram for vnet_1
system.noc_network.delayVCHist.vnet_1::samples     23469646                       # delay histogram for vnet_1
system.noc_network.delayVCHist.vnet_1::mean    11.757303                       # delay histogram for vnet_1
system.noc_network.delayVCHist.vnet_1::gmean    11.709383                       # delay histogram for vnet_1
system.noc_network.delayVCHist.vnet_1::stdev     1.102682                       # delay histogram for vnet_1
system.noc_network.delayVCHist.vnet_1    |           0      0.00%      0.00% |           0      0.00%      0.00% |           0      0.00%      0.00% |           0      0.00%      0.00% |           0      0.00%      0.00% |    15126428     64.45%     64.45% |     7825866     33.34%     97.80% |      349555      1.49%     99.29% |      122073      0.52%     99.81% |       45724      0.19%    100.00% # delay histogram for vnet_1
system.noc_network.delayVCHist.vnet_1::total     23469646                       # delay histogram for vnet_1
system.noc_network.delayVCHist.vnet_2::bucket_size            4                       # delay histogram for vnet_2
system.noc_network.delayVCHist.vnet_2::max_bucket           39                       # delay histogram for vnet_2
system.noc_network.delayVCHist.vnet_2::samples     23469015                       # delay histogram for vnet_2
system.noc_network.delayVCHist.vnet_2::mean    15.774378                       # delay histogram for vnet_2
system.noc_network.delayVCHist.vnet_2::gmean    13.956567                       # delay histogram for vnet_2
system.noc_network.delayVCHist.vnet_2::stdev     7.294804                       # delay histogram for vnet_2
system.noc_network.delayVCHist.vnet_2    |           0      0.00%      0.00% |     1355068      5.77%      5.77% |     9472435     40.36%     46.14% |      285256      1.22%     47.35% |      595500      2.54%     49.89% |     8060852     34.35%     84.23% |     3019913     12.87%     97.10% |      413534      1.76%     98.86% |      266457      1.14%    100.00% |           0      0.00%    100.00% # delay histogram for vnet_2
system.noc_network.delayVCHist.vnet_2::total     23469015                       # delay histogram for vnet_2
system.noc_network.hit_latency_hist_seqr::bucket_size            1                      
system.noc_network.hit_latency_hist_seqr::max_bucket            9                      
system.noc_network.hit_latency_hist_seqr::samples     85090366                      
system.noc_network.hit_latency_hist_seqr |    85090366    100.00%    100.00% |           0      0.00%    100.00% |           0      0.00%    100.00% |           0      0.00%    100.00% |           0      0.00%    100.00% |           0      0.00%    100.00% |           0      0.00%    100.00% |           0      0.00%    100.00% |           0      0.00%    100.00% |           0      0.00%    100.00%
system.noc_network.hit_latency_hist_seqr::total     85090366                      
system.noc_network.latency_hist_seqr::bucket_size            8                      
system.noc_network.latency_hist_seqr::max_bucket           79                      
system.noc_network.latency_hist_seqr::samples    108560012                      
system.noc_network.latency_hist_seqr::mean     0.000001                      
system.noc_network.latency_hist_seqr::stdev     0.006142                      
system.noc_network.latency_hist_seqr     |   108560011    100.00%    100.00% |           0      0.00%    100.00% |           0      0.00%    100.00% |           0      0.00%    100.00% |           0      0.00%    100.00% |           0      0.00%    100.00% |           0      0.00%    100.00% |           0      0.00%    100.00% |           1      0.00%    100.00% |           0      0.00%    100.00%
system.noc_network.latency_hist_seqr::total    108560012                      
system.noc_network.miss_latency_hist_seqr::bucket_size            8                      
system.noc_network.miss_latency_hist_seqr::max_bucket           79                      
system.noc_network.miss_latency_hist_seqr::samples     23469646                      
system.noc_network.miss_latency_hist_seqr::mean     0.000003                      
system.noc_network.miss_latency_hist_seqr::stdev     0.013211                      
system.noc_network.miss_latency_hist_seqr |    23469645    100.00%    100.00% |           0      0.00%    100.00% |           0      0.00%    100.00% |           0      0.00%    100.00% |           0      0.00%    100.00% |           0      0.00%    100.00% |           0      0.00%    100.00% |           0      0.00%    100.00% |           1      0.00%    100.00% |           0      0.00%    100.00%
[...]
system.noc_network.socket_controllers3.mem_ctrl.wrQLenPdf::125            0                       # What write queue length does an incoming req see
system.noc_network.socket_controllers3.mem_ctrl.wrQLenPdf::126            0                       # What write queue length does an incoming req see
system.noc_network.socket_controllers3.mem_ctrl.wrQLenPdf::127            0                       # What write queue length does an incoming req see
system.noc_network.socket_controllers3.mem_ctrl.rdPerTurnAround::samples           28                       # Reads before turning the bus around for writes
system.noc_network.socket_controllers3.mem_ctrl.rdPerTurnAround::mean    21.321429                       # Reads before turning the bus around for writes
system.noc_network.socket_controllers3.mem_ctrl.rdPerTurnAround::stdev    76.928564                       # Reads before turning the bus around for writes
system.noc_network.socket_controllers3.mem_ctrl.rdPerTurnAround::0-7           26     92.86%     92.86% # Reads before turning the bus around for writes
system.noc_network.socket_controllers3.mem_ctrl.rdPerTurnAround::232-239            1      3.57%     96.43% # Reads before turning the bus around for writes
system.noc_network.socket_controllers3.mem_ctrl.rdPerTurnAround::336-343            1      3.57%    100.00% # Reads before turning the bus around for writes
system.noc_network.socket_controllers3.mem_ctrl.rdPerTurnAround::total           28                       # Reads before turning the bus around for writes
system.noc_network.socket_controllers3.mem_ctrl.wrPerTurnAround::samples           28                       # Writes before turning the bus around for reads
system.noc_network.socket_controllers3.mem_ctrl.wrPerTurnAround::mean           18                       # Writes before turning the bus around for reads
system.noc_network.socket_controllers3.mem_ctrl.wrPerTurnAround::gmean    18.000000                       # Writes before turning the bus around for reads
system.noc_network.socket_controllers3.mem_ctrl.wrPerTurnAround::18           28    100.00%    100.00% # Writes before turning the bus around for reads
system.noc_network.socket_controllers3.mem_ctrl.wrPerTurnAround::total           28                       # Writes before turning the bus around for reads
system.noc_network.socket_controllers3.mem_ctrl.bytesReadWrQ         8384                       # Total number of bytes read from write queue
system.noc_network.socket_controllers3.mem_ctrl.bytesReadSys        46592                       # Total read bytes from the system interface side
system.noc_network.socket_controllers3.mem_ctrl.bytesWrittenSys        38272                       # Total written bytes from the system interface side
system.noc_network.socket_controllers3.mem_ctrl.avgRdBWSys         0.08                       # Average system read bandwidth in MiByte/s
system.noc_network.socket_controllers3.mem_ctrl.avgWrBWSys         0.06                       # Average system write bandwidth in MiByte/s
system.noc_network.socket_controllers3.mem_ctrl.totGap 592018869000                       # Total gap between requests
system.noc_network.socket_controllers3.mem_ctrl.avgGap 446469735.29                       # Average gap between requests
system.noc_network.socket_controllers3.mem_ctrl.requestorReadBytes::.noc_network.socket_controllers3        38208                       # Per-requestor bytes read from memory
system.noc_network.socket_controllers3.mem_ctrl.requestorWriteBytes::.noc_network.socket_controllers3        32256                       # Per-requestor bytes write to memory
system.noc_network.socket_controllers3.mem_ctrl.requestorReadRate::.noc_network.socket_controllers3 64536.776367650004                       # Per-requestor bytes read from memory rate (Bytes/sec)
system.noc_network.socket_controllers3.mem_ctrl.requestorWriteRate::.noc_network.socket_controllers3 54483.308692287443                       # Per-requestor bytes write to memory rate (Bytes/sec)
system.noc_network.socket_controllers3.mem_ctrl.requestorReadAccesses::.noc_network.socket_controllers3          728                       # Per-requestor read serviced memory accesses
system.noc_network.socket_controllers3.mem_ctrl.requestorWriteAccesses::.noc_network.socket_controllers3          598                       # Per-requestor write serviced memory accesses
system.noc_network.socket_controllers3.mem_ctrl.requestorReadTotalLat::.noc_network.socket_controllers3     10791634                       # Per-requestor read total memory access latency
system.noc_network.socket_controllers3.mem_ctrl.requestorWriteTotalLat::.noc_network.socket_controllers3 35513435726256                       # Per-requestor write total memory access latency
system.noc_network.socket_controllers3.mem_ctrl.requestorReadAvgLat::.noc_network.socket_controllers3     14823.67                       # Per-requestor read average memory access latency
system.noc_network.socket_controllers3.mem_ctrl.requestorWriteAvgLat::.noc_network.socket_controllers3 59387016264.64                       # Per-requestor write average memory access latency
system.noc_network.socket_controllers3.mem_ctrl.nvm.bytes_read::.noc_network.socket_controllers3        46592                       # Number of bytes read from this memory
system.noc_network.socket_controllers3.mem_ctrl.nvm.bytes_read::total        46592                       # Number of bytes read from this memory
system.noc_network.socket_controllers3.mem_ctrl.nvm.bytes_written::.noc_network.socket_controllers3        38272                       # Number of bytes written to this memory
system.noc_network.socket_controllers3.mem_ctrl.nvm.bytes_written::total        38272                       # Number of bytes written to this memory
system.noc_network.socket_controllers3.mem_ctrl.nvm.num_reads::.noc_network.socket_controllers3          728                       # Number of read requests responded to by this memory
system.noc_network.socket_controllers3.mem_ctrl.nvm.num_reads::total          728                       # Number of read requests responded to by this memory
system.noc_network.socket_controllers3.mem_ctrl.nvm.num_writes::.noc_network.socket_controllers3          598                       # Number of write requests responded to by this memory
system.noc_network.socket_controllers3.mem_ctrl.nvm.num_writes::total          598                       # Number of write requests responded to by this memory
system.noc_network.socket_controllers3.mem_ctrl.nvm.bw_read::.noc_network.socket_controllers3        78698                       # Total read bandwidth from this memory (bytes/s)
system.noc_network.socket_controllers3.mem_ctrl.nvm.bw_read::total        78698                       # Total read bandwidth from this memory (bytes/s)
system.noc_network.socket_controllers3.mem_ctrl.nvm.bw_write::.noc_network.socket_controllers3        64645                       # Write bandwidth from this memory (bytes/s)
system.noc_network.socket_controllers3.mem_ctrl.nvm.bw_write::total        64645                       # Write bandwidth from this memory (bytes/s)
system.noc_network.socket_controllers3.mem_ctrl.nvm.bw_total::.noc_network.socket_controllers3       143343                       # Total bandwidth to/from this memory (bytes/s)
system.noc_network.socket_controllers3.mem_ctrl.nvm.bw_total::total       143343                       # Total bandwidth to/from this memory (bytes/s)
system.noc_network.socket_controllers3.mem_ctrl.nvm.readBursts          597                       # Number of NVM read bursts
system.noc_network.socket_controllers3.mem_ctrl.nvm.writeBursts          504                       # Number of NVM write bursts
system.noc_network.socket_controllers3.mem_ctrl.nvm.perBankRdBursts::0           35                       # Per bank write bursts
system.noc_network.socket_controllers3.mem_ctrl.nvm.perBankRdBursts::1           37                       # Per bank write bursts
system.noc_network.socket_controllers3.mem_ctrl.nvm.perBankRdBursts::2           43                       # Per bank write bursts
system.noc_network.socket_controllers3.mem_ctrl.nvm.perBankRdBursts::3           42                       # Per bank write bursts
system.noc_network.socket_controllers3.mem_ctrl.nvm.perBankRdBursts::4           39                       # Per bank write bursts
system.noc_network.socket_controllers3.mem_ctrl.nvm.perBankRdBursts::5           44                       # Per bank write bursts
system.noc_network.socket_controllers3.mem_ctrl.nvm.perBankRdBursts::6           40                       # Per bank write bursts
system.noc_network.socket_controllers3.mem_ctrl.nvm.perBankRdBursts::7           36                       # Per bank write bursts
system.noc_network.socket_controllers3.mem_ctrl.nvm.perBankRdBursts::8           49                       # Per bank write bursts
system.noc_network.socket_controllers3.mem_ctrl.nvm.perBankRdBursts::9           39                       # Per bank write bursts
system.noc_network.socket_controllers3.mem_ctrl.nvm.perBankRdBursts::10           41                       # Per bank write bursts
system.noc_network.socket_controllers3.mem_ctrl.nvm.perBankRdBursts::11           37                       # Per bank write bursts
system.noc_network.socket_controllers3.mem_ctrl.nvm.perBankRdBursts::12           31                       # Per bank write bursts
system.noc_network.socket_controllers3.mem_ctrl.nvm.perBankRdBursts::13           32                       # Per bank write bursts
system.noc_network.socket_controllers3.mem_ctrl.nvm.perBankRdBursts::14           26                       # Per bank write bursts
system.noc_network.socket_controllers3.mem_ctrl.nvm.perBankRdBursts::15           26                       # Per bank write bursts
system.noc_network.socket_controllers3.mem_ctrl.nvm.perBankWrBursts::0           29                       # Per bank write bursts
system.noc_network.socket_controllers3.mem_ctrl.nvm.perBankWrBursts::1           34                       # Per bank write bursts
system.noc_network.socket_controllers3.mem_ctrl.nvm.perBankWrBursts::2           35                       # Per bank write bursts
system.noc_network.socket_controllers3.mem_ctrl.nvm.perBankWrBursts::3           28                       # Per bank write bursts
system.noc_network.socket_controllers3.mem_ctrl.nvm.perBankWrBursts::4           32                       # Per bank write bursts
system.noc_network.socket_controllers3.mem_ctrl.nvm.perBankWrBursts::5           46                       # Per bank write bursts
system.noc_network.socket_controllers3.mem_ctrl.nvm.perBankWrBursts::6           34                       # Per bank write bursts
system.noc_network.socket_controllers3.mem_ctrl.nvm.perBankWrBursts::7           34                       # Per bank write bursts
system.noc_network.socket_controllers3.mem_ctrl.nvm.perBankWrBursts::8           36                       # Per bank write bursts
system.noc_network.socket_controllers3.mem_ctrl.nvm.perBankWrBursts::9           36                       # Per bank write bursts
system.noc_network.socket_controllers3.mem_ctrl.nvm.perBankWrBursts::10           26                       # Per bank write bursts
system.noc_network.socket_controllers3.mem_ctrl.nvm.perBankWrBursts::11           28                       # Per bank write bursts
system.noc_network.socket_controllers3.mem_ctrl.nvm.perBankWrBursts::12           23                       # Per bank write bursts
system.noc_network.socket_controllers3.mem_ctrl.nvm.perBankWrBursts::13           32                       # Per bank write bursts
system.noc_network.socket_controllers3.mem_ctrl.nvm.perBankWrBursts::14           23                       # Per bank write bursts
system.noc_network.socket_controllers3.mem_ctrl.nvm.perBankWrBursts::15           28                       # Per bank write bursts
system.noc_network.socket_controllers3.mem_ctrl.nvm.totQLat       348910                       # Total ticks spent queuing
system.noc_network.socket_controllers3.mem_ctrl.nvm.totBusLat      1989204                       # Total ticks spent in databus transfers
system.noc_network.socket_controllers3.mem_ctrl.nvm.totMemAccLat     10791634                       # Total ticks spent from burst creation until serviced by the NVM
system.noc_network.socket_controllers3.mem_ctrl.nvm.avgQLat       584.44                       # Average queueing delay per NVM burst
system.noc_network.socket_controllers3.mem_ctrl.nvm.avgBusLat      3332.00                       # Average bus latency per NVM burst
system.noc_network.socket_controllers3.mem_ctrl.nvm.avgMemAccLat     18076.44                       # Average memory access latency per NVM burst
system.noc_network.socket_controllers3.mem_ctrl.nvm.bytesRead        38208                       # Total number of bytes read from DRAM
system.noc_network.socket_controllers3.mem_ctrl.nvm.bytesWritten        32256                       # Total number of bytes written to DRAM
system.noc_network.socket_controllers3.mem_ctrl.nvm.avgRdBW         0.06                       # Average DRAM read bandwidth in MiBytes/s
system.noc_network.socket_controllers3.mem_ctrl.nvm.avgWrBW         0.05                       # Average DRAM write bandwidth in MiBytes/s
system.noc_network.socket_controllers3.mem_ctrl.nvm.peakBW     19207.00                       # Theoretical peak bandwidth in MiByte/s
system.noc_network.socket_controllers3.mem_ctrl.nvm.busUtil         0.00                       # NVM Data bus utilization in percentage
system.noc_network.socket_controllers3.mem_ctrl.nvm.busUtilRead         0.00                       # NVM Data bus read utilization in percentage
system.noc_network.socket_controllers3.mem_ctrl.nvm.busUtilWrite         0.00                       # NVM Data bus write utilization in percentage
system.noc_network.socket_controllers3.mem_ctrl.nvm.pendingReads::samples          597                       # Reads issued to NVM for which data has not been transferred
system.noc_network.socket_controllers3.mem_ctrl.nvm.pendingReads::mean     0.006700                       # Reads issued to NVM for which data has not been transferred
system.noc_network.socket_controllers3.mem_ctrl.nvm.pendingReads::stdev     0.081648                       # Reads issued to NVM for which data has not been transferred
system.noc_network.socket_controllers3.mem_ctrl.nvm.pendingReads::0          593     99.33%     99.33% # Reads issued to NVM for which data has not been transferred
system.noc_network.socket_controllers3.mem_ctrl.nvm.pendingReads::1            4      0.67%    100.00% # Reads issued to NVM for which data has not been transferred
system.noc_network.socket_controllers3.mem_ctrl.nvm.pendingReads::total          597                       # Reads issued to NVM for which data has not been transferred
system.noc_network.socket_controllers3.mem_ctrl.nvm.pendingWrites::samples          504                       # Number of outstanding writes to NVM
system.noc_network.socket_controllers3.mem_ctrl.nvm.pendingWrites::mean     5.833333                       # Number of outstanding writes to NVM
system.noc_network.socket_controllers3.mem_ctrl.nvm.pendingWrites::gmean     5.273991                       # Number of outstanding writes to NVM
system.noc_network.socket_controllers3.mem_ctrl.nvm.pendingWrites::stdev     1.924003                       # Number of outstanding writes to NVM
system.noc_network.socket_controllers3.mem_ctrl.nvm.pendingWrites::1           28      5.56%      5.56% # Number of outstanding writes to NVM
system.noc_network.socket_controllers3.mem_ctrl.nvm.pendingWrites::2           28      5.56%     11.11% # Number of outstanding writes to NVM
system.noc_network.socket_controllers3.mem_ctrl.nvm.pendingWrites::3           28      5.56%     16.67% # Number of outstanding writes to NVM
system.noc_network.socket_controllers3.mem_ctrl.nvm.pendingWrites::4           28      5.56%     22.22% # Number of outstanding writes to NVM
system.noc_network.socket_controllers3.mem_ctrl.nvm.pendingWrites::5           28      5.56%     27.78% # Number of outstanding writes to NVM
system.noc_network.socket_controllers3.mem_ctrl.nvm.pendingWrites::6           28      5.56%     33.33% # Number of outstanding writes to NVM
system.noc_network.socket_controllers3.mem_ctrl.nvm.pendingWrites::7          336     66.67%    100.00% # Number of outstanding writes to NVM
system.noc_network.socket_controllers3.mem_ctrl.nvm.pendingWrites::total          504                       # Number of outstanding writes to NVM
system.noc_network.socket_controllers3.mem_ctrl.nvm.bytesPerBank::samples          588                       # Bytes read within a bank before loading new bank
system.noc_network.socket_controllers3.mem_ctrl.nvm.bytesPerBank::mean   119.074830                       # Bytes read within a bank before loading new bank
system.noc_network.socket_controllers3.mem_ctrl.nvm.bytesPerBank::gmean   101.822657                       # Bytes read within a bank before loading new bank
system.noc_network.socket_controllers3.mem_ctrl.nvm.bytesPerBank::stdev    71.104893                       # Bytes read within a bank before loading new bank
system.noc_network.socket_controllers3.mem_ctrl.nvm.bytesPerBank::64-65          314     53.40%     53.40% # Bytes read within a bank before loading new bank
system.noc_network.socket_controllers3.mem_ctrl.nvm.bytesPerBank::128-129          133     22.62%     76.02% # Bytes read within a bank before loading new bank
system.noc_network.socket_controllers3.mem_ctrl.nvm.bytesPerBank::192-193           53      9.01%     85.03% # Bytes read within a bank before loading new bank
system.noc_network.socket_controllers3.mem_ctrl.nvm.bytesPerBank::256-257           86     14.63%     99.66% # Bytes read within a bank before loading new bank
system.noc_network.socket_controllers3.mem_ctrl.nvm.bytesPerBank::320-321            1      0.17%     99.83% # Bytes read within a bank before loading new bank
system.noc_network.socket_controllers3.mem_ctrl.nvm.bytesPerBank::384-385            1      0.17%    100.00% # Bytes read within a bank before loading new bank
system.noc_network.socket_controllers3.mem_ctrl.nvm.bytesPerBank::total          588                       # Bytes read within a bank before loading new bank
system.noc_network.socket_controllers3.mem_ctrl.nvm.power_state.pwrStateResidencyTicks::UNDEFINED 592034529000                       # Cumulative time (in ticks) in various power states
system.noc_network.socket_controllers3.mem_ctrl.power_state.pwrStateResidencyTicks::UNDEFINED 592034529000                       # Cumulative time (in ticks) in various power states
system.noc_network.socket_controllers3.power_state.pwrStateResidencyTicks::UNDEFINED 592034529000                       # Cumulative time (in ticks) in various power states
system.noc_network.socket_controllers4.power_state.pwrStateResidencyTicks::UNDEFINED 592034529000                       # Cumulative time (in ticks) in various power states
system.noc_network.socket_controllers4.sequencer.power_state.pwrStateResidencyTicks::UNDEFINED 592034529000                       # Cumulative time (in ticks) in various power states
system.noc_network.socket_controllers5.power_state.pwrStateResidencyTicks::UNDEFINED 592034529000                       # Cumulative time (in ticks) in various power states
system.noc_network.socket_controllers5.sequencer.power_state.pwrStateResidencyTicks::UNDEFINED 592034529000                       # Cumulative time (in ticks) in various power states
system.noc_network.sys_port_proxy.power_state.pwrStateResidencyTicks::UNDEFINED 592034529000                       # Cumulative time (in ticks) in various power states
system.voltage_domain.voltage                       1                       # Voltage in Volts

---------- End Simulation Statistics   ----------
