
---------- Begin Simulation Statistics ----------
final_tick                               659314208000                       # Number of ticks from beginning of simulation (restored from checkpoints and never reset)
host_inst_rate                                  25267                       # Simulator instruction rate (inst/s)
host_mem_usage                                1474932                       # Number of bytes of host memory used
host_op_rate                                    43436                       # Simulator op (including micro ops) rate (op/s)
host_seconds                                  2141.48                       # Real time elapsed on the host
host_tick_rate                              307877750                       # Simulator tick rate (ticks/s)
sim_freq                                 1000000000000                       # Frequency of simulated ticks
sim_insts                                    54109121                       # Number of instructions simulated
sim_ops                                      93017704                       # Number of ops (including micro ops) simulated
sim_seconds                                  0.659314                       # Number of seconds simulated
sim_ticks                                659314208000                       # Number of ticks simulated
system.cpu0.Branches                             5327                       # Number of branches fetched
system.cpu0.committedInsts                      25812                       # Number of instructions committed
system.cpu0.committedOps                        49738                       # Number of ops (including micro ops) committed
system.cpu0.idle_fraction                    0.999649                       # Percentage of idle cycles
system.cpu0.not_idle_fraction                0.000351                       # Percentage of non-idle cycles
system.cpu0.numCycles                       659314208                       # number of cpu cycles simulated
system.cpu0.numWorkItemsCompleted                   0                       # number of work items this cpu completed
system.cpu0.numWorkItemsStarted                     0                       # number of work items this cpu started
system.cpu0.num_busy_cycles              231427.000000                       # Number of busy cycles
system.cpu0.num_cc_register_reads               25681                       # number of times the CC registers were read
system.cpu0.num_cc_register_writes              14764                       # number of times the CC registers were written
system.cpu0.num_conditional_control_insts         3780                       # number of instructions that are conditional controls
system.cpu0.num_fp_alu_accesses                  2573                       # Number of float alu accesses
system.cpu0.num_fp_insts                         2573                       # number of float instructions
system.cpu0.num_fp_register_reads                2706                       # number of times the floating registers were read
system.cpu0.num_fp_register_writes               1201                       # number of times the floating registers were written
system.cpu0.num_func_calls                       1142                       # number of times a function call or return occured
system.cpu0.num_idle_cycles              659082781.000000                       # Number of idle cycles
system.cpu0.num_int_alu_accesses                47808                       # Number of integer alu accesses
system.cpu0.num_int_insts                       47808                       # number of integer instructions
system.cpu0.num_int_register_reads              94544                       # number of times the integer registers were read
system.cpu0.num_int_register_writes             36861                       # number of times the integer registers were written
system.cpu0.num_load_insts                       5807                       # Number of load instructions
system.cpu0.num_mem_refs                        11190                       # number of memory refs
system.cpu0.num_store_insts                      5383                       # Number of store instructions
system.cpu0.num_vec_alu_accesses                    0                       # Number of vector alu accesses
system.cpu0.num_vec_insts                           0                       # number of vector instructions
system.cpu0.num_vec_register_reads                  0                       # number of times the vector registers were read
system.cpu0.num_vec_register_writes                 0                       # number of times the vector registers were written
system.cpu0.op_class::No_OpClass                  786      1.58%      1.58% # Class of executed instruction
system.cpu0.op_class::IntAlu                    36970     74.25%     75.83% # Class of executed instruction
system.cpu0.op_class::IntMult                      15      0.03%     75.86% # Class of executed instruction
system.cpu0.op_class::IntDiv                       42      0.08%     75.94% # Class of executed instruction
system.cpu0.op_class::FloatAdd                    194      0.39%     76.33% # Class of executed instruction
system.cpu0.op_class::FloatCmp                      0      0.00%     76.33% # Class of executed instruction
system.cpu0.op_class::FloatCvt                      0      0.00%     76.33% # Class of executed instruction
system.cpu0.op_class::FloatMult                     0      0.00%     76.33% # Class of executed instruction
system.cpu0.op_class::FloatMultAcc                  0      0.00%     76.33% # Class of executed instruction
system.cpu0.op_class::FloatDiv                      0      0.00%     76.33% # Class of executed instruction
system.cpu0.op_class::FloatMisc                     0      0.00%     76.33% # Class of executed instruction
system.cpu0.op_class::FloatSqrt                     0      0.00%     76.33% # Class of executed instruction
system.cpu0.op_class::SimdAdd                       0      0.00%     76.33% # Class of executed instruction
system.cpu0.op_class::SimdAddAcc                    0      0.00%     76.33% # Class of executed instruction
system.cpu0.op_class::SimdAlu                     134      0.27%     76.60% # Class of executed instruction
system.cpu0.op_class::SimdCmp                       0      0.00%     76.60% # Class of executed instruction
system.cpu0.op_class::SimdCvt                      62      0.12%     76.73% # Class of executed instruction
system.cpu0.op_class::SimdMisc                    392      0.79%     77.51% # Class of executed instruction
system.cpu0.op_class::SimdMult                      0      0.00%     77.51% # Class of executed instruction
system.cpu0.op_class::SimdMultAcc                   0      0.00%     77.51% # Class of executed instruction
system.cpu0.op_class::SimdShift                     0      0.00%     77.51% # Class of executed instruction
system.cpu0.op_class::SimdShiftAcc                  0      0.00%     77.51% # Class of executed instruction
system.cpu0.op_class::SimdDiv                       0      0.00%     77.51% # Class of executed instruction
system.cpu0.op_class::SimdSqrt                      0      0.00%     77.51% # Class of executed instruction
system.cpu0.op_class::SimdFloatAdd                  0      0.00%     77.51% # Class of executed instruction
system.cpu0.op_class::SimdFloatAlu                  0      0.00%     77.51% # Class of executed instruction
system.cpu0.op_class::SimdFloatCmp                  0      0.00%     77.51% # Class of executed instruction
system.cpu0.op_class::SimdFloatCvt                  5      0.01%     77.52% # Class of executed instruction
system.cpu0.op_class::SimdFloatDiv                  0      0.00%     77.52% # Class of executed instruction
system.cpu0.op_class::SimdFloatMisc                 0      0.00%     77.52% # Class of executed instruction
system.cpu0.op_class::SimdFloatMult                 2      0.00%     77.53% # Class of executed instruction
system.cpu0.op_class::SimdFloatMultAcc              0      0.00%     77.53% # Class of executed instruction
system.cpu0.op_class::SimdFloatSqrt                 0      0.00%     77.53% # Class of executed instruction
system.cpu0.op_class::SimdReduceAdd                 0      0.00%     77.53% # Class of executed instruction
system.cpu0.op_class::SimdReduceAlu                 0      0.00%     77.53% # Class of executed instruction
system.cpu0.op_class::SimdReduceCmp                 0      0.00%     77.53% # Class of executed instruction
system.cpu0.op_class::SimdFloatReduceAdd            0      0.00%     77.53% # Class of executed instruction
system.cpu0.op_class::SimdFloatReduceCmp            0      0.00%     77.53% # Class of executed instruction
system.cpu0.op_class::SimdAes                       0      0.00%     77.53% # Class of executed instruction
system.cpu0.op_class::SimdAesMix                    0      0.00%     77.53% # Class of executed instruction
system.cpu0.op_class::SimdSha1Hash                  0      0.00%     77.53% # Class of executed instruction
system.cpu0.op_class::SimdSha1Hash2                 0      0.00%     77.53% # Class of executed instruction
system.cpu0.op_class::SimdSha256Hash                0      0.00%     77.53% # Class of executed instruction
system.cpu0.op_class::SimdSha256Hash2               0      0.00%     77.53% # Class of executed instruction
system.cpu0.op_class::SimdShaSigma2                 0      0.00%     77.53% # Class of executed instruction
system.cpu0.op_class::SimdShaSigma3                 0      0.00%     77.53% # Class of executed instruction
system.cpu0.op_class::SimdPredAlu                   0      0.00%     77.53% # Class of executed instruction
system.cpu0.op_class::MemRead                    5521     11.09%     88.61% # Class of executed instruction
system.cpu0.op_class::MemWrite                   4069      8.17%     96.79% # Class of executed instruction
system.cpu0.op_class::FloatMemRead                286      0.57%     97.36% # Class of executed instruction
system.cpu0.op_class::FloatMemWrite              1314      2.64%    100.00% # Class of executed instruction
system.cpu0.op_class::IprAccess                     0      0.00%    100.00% # Class of executed instruction
system.cpu0.op_class::InstPrefetch                  0      0.00%    100.00% # Class of executed instruction
system.cpu0.op_class::total                     49792                       # Class of executed instruction
system.cpu0.workload.numSyscalls                   42                       # Number of system calls
system.cpu1.Branches                           657098                       # Number of branches fetched
system.cpu1.committedInsts                   16609243                       # Number of instructions committed
system.cpu1.committedOps                     28394710                       # Number of ops (including micro ops) committed
system.cpu1.idle_fraction                    0.021893                       # Percentage of idle cycles
system.cpu1.not_idle_fraction                0.978107                       # Percentage of non-idle cycles
system.cpu1.numCycles                       655272367                       # number of cpu cycles simulated
system.cpu1.numWorkItemsCompleted                   0                       # number of work items this cpu completed
system.cpu1.numWorkItemsStarted                     0                       # number of work items this cpu started
system.cpu1.num_busy_cycles              640926198.814381                       # Number of busy cycles
system.cpu1.num_cc_register_reads             3195161                       # number of times the CC registers were read
system.cpu1.num_cc_register_writes            7906029                       # number of times the CC registers were written
system.cpu1.num_conditional_control_insts       616094                       # number of instructions that are conditional controls
system.cpu1.num_fp_alu_accesses                 20545                       # Number of float alu accesses
system.cpu1.num_fp_insts                        20545                       # number of float instructions
system.cpu1.num_fp_register_reads               25425                       # number of times the floating registers were read
system.cpu1.num_fp_register_writes              17508                       # number of times the floating registers were written
system.cpu1.num_func_calls                       1839                       # number of times a function call or return occured
system.cpu1.num_idle_cycles              14346168.185619                       # Number of idle cycles
system.cpu1.num_int_alu_accesses             28378028                       # Number of integer alu accesses
system.cpu1.num_int_insts                    28378028                       # number of integer instructions
system.cpu1.num_int_register_reads           71364599                       # number of times the integer registers were read
system.cpu1.num_int_register_writes          24971286                       # number of times the integer registers were written
system.cpu1.num_load_insts                    8320121                       # Number of load instructions
system.cpu1.num_mem_refs                     12168908                       # number of memory refs
system.cpu1.num_store_insts                   3848787                       # Number of store instructions
system.cpu1.num_vec_alu_accesses                    0                       # Number of vector alu accesses
system.cpu1.num_vec_insts                           0                       # number of vector instructions
system.cpu1.num_vec_register_reads                  0                       # number of times the vector registers were read
system.cpu1.num_vec_register_writes                 0                       # number of times the vector registers were written
system.cpu1.op_class::No_OpClass                 3972      0.01%      0.01% # Class of executed instruction
system.cpu1.op_class::IntAlu                 15123845     53.26%     53.28% # Class of executed instruction
system.cpu1.op_class::IntMult                 1068751      3.76%     57.04% # Class of executed instruction
system.cpu1.op_class::IntDiv                    16496      0.06%     57.10% # Class of executed instruction
system.cpu1.op_class::FloatAdd                   3824      0.01%     57.11% # Class of executed instruction
system.cpu1.op_class::FloatCmp                      0      0.00%     57.11% # Class of executed instruction
system.cpu1.op_class::FloatCvt                      0      0.00%     57.11% # Class of executed instruction
system.cpu1.op_class::FloatMult                     0      0.00%     57.11% # Class of executed instruction
system.cpu1.op_class::FloatMultAcc                  0      0.00%     57.11% # Class of executed instruction
system.cpu1.op_class::FloatDiv                      0      0.00%     57.11% # Class of executed instruction
system.cpu1.op_class::FloatMisc                     0      0.00%     57.11% # Class of executed instruction
system.cpu1.op_class::FloatSqrt                     0      0.00%     57.11% # Class of executed instruction
system.cpu1.op_class::SimdAdd                       0      0.00%     57.11% # Class of executed instruction
system.cpu1.op_class::SimdAddAcc                    0      0.00%     57.11% # Class of executed instruction
system.cpu1.op_class::SimdAlu                     898      0.00%     57.12% # Class of executed instruction
system.cpu1.op_class::SimdCmp                       0      0.00%     57.12% # Class of executed instruction
system.cpu1.op_class::SimdCvt                      20      0.00%     57.12% # Class of executed instruction
system.cpu1.op_class::SimdMisc                   1246      0.00%     57.12% # Class of executed instruction
system.cpu1.op_class::SimdMult                      0      0.00%     57.12% # Class of executed instruction
system.cpu1.op_class::SimdMultAcc                   0      0.00%     57.12% # Class of executed instruction
system.cpu1.op_class::SimdShift                     0      0.00%     57.12% # Class of executed instruction
system.cpu1.op_class::SimdShiftAcc                  0      0.00%     57.12% # Class of executed instruction
system.cpu1.op_class::SimdDiv                       0      0.00%     57.12% # Class of executed instruction
system.cpu1.op_class::SimdSqrt                      0      0.00%     57.12% # Class of executed instruction
system.cpu1.op_class::SimdFloatAdd               2320      0.01%     57.13% # Class of executed instruction
system.cpu1.op_class::SimdFloatAlu                  0      0.00%     57.13% # Class of executed instruction
system.cpu1.op_class::SimdFloatCmp                  0      0.00%     57.13% # Class of executed instruction
system.cpu1.op_class::SimdFloatCvt               1504      0.01%     57.13% # Class of executed instruction
system.cpu1.op_class::SimdFloatDiv                232      0.00%     57.13% # Class of executed instruction
system.cpu1.op_class::SimdFloatMisc                 0      0.00%     57.13% # Class of executed instruction
system.cpu1.op_class::SimdFloatMult              2724      0.01%     57.14% # Class of executed instruction
system.cpu1.op_class::SimdFloatMultAcc              0      0.00%     57.14% # Class of executed instruction
system.cpu1.op_class::SimdFloatSqrt                 0      0.00%     57.14% # Class of executed instruction
system.cpu1.op_class::SimdReduceAdd                 0      0.00%     57.14% # Class of executed instruction
system.cpu1.op_class::SimdReduceAlu                 0      0.00%     57.14% # Class of executed instruction
system.cpu1.op_class::SimdReduceCmp                 0      0.00%     57.14% # Class of executed instruction
system.cpu1.op_class::SimdFloatReduceAdd            0      0.00%     57.14% # Class of executed instruction
system.cpu1.op_class::SimdFloatReduceCmp            0      0.00%     57.14% # Class of executed instruction
system.cpu1.op_class::SimdAes                       0      0.00%     57.14% # Class of executed instruction
system.cpu1.op_class::SimdAesMix                    0      0.00%     57.14% # Class of executed instruction
system.cpu1.op_class::SimdSha1Hash                  0      0.00%     57.14% # Class of executed instruction
system.cpu1.op_class::SimdSha1Hash2                 0      0.00%     57.14% # Class of executed instruction
system.cpu1.op_class::SimdSha256Hash                0      0.00%     57.14% # Class of executed instruction
system.cpu1.op_class::SimdSha256Hash2               0      0.00%     57.14% # Class of executed instruction
system.cpu1.op_class::SimdShaSigma2                 0      0.00%     57.14% # Class of executed instruction
system.cpu1.op_class::SimdShaSigma3                 0      0.00%     57.14% # Class of executed instruction
system.cpu1.op_class::SimdPredAlu                   0      0.00%     57.14% # Class of executed instruction
system.cpu1.op_class::MemRead                 8314900     29.28%     86.43% # Class of executed instruction
system.cpu1.op_class::MemWrite                3847162     13.55%     99.98% # Class of executed instruction
system.cpu1.op_class::FloatMemRead               5221      0.02%     99.99% # Class of executed instruction
system.cpu1.op_class::FloatMemWrite              1625      0.01%    100.00% # Class of executed instruction
system.cpu1.op_class::IprAccess                     0      0.00%    100.00% # Class of executed instruction
system.cpu1.op_class::InstPrefetch                  0      0.00%    100.00% # Class of executed instruction
system.cpu1.op_class::total                  28394740                       # Class of executed instruction
system.cpu2.Branches                           657106                       # Number of branches fetched
system.cpu2.committedInsts                   16609150                       # Number of instructions committed
system.cpu2.committedOps                     28394609                       # Number of ops (including micro ops) committed
system.cpu2.idle_fraction                    0.020731                       # Percentage of idle cycles
system.cpu2.not_idle_fraction                0.979269                       # Percentage of non-idle cycles
system.cpu2.numCycles                       655998731                       # number of cpu cycles simulated
system.cpu2.numWorkItemsCompleted                   0                       # number of work items this cpu completed
system.cpu2.numWorkItemsStarted                     0                       # number of work items this cpu started
system.cpu2.num_busy_cycles              642399466.911404                       # Number of busy cycles
system.cpu2.num_cc_register_reads             3195185                       # number of times the CC registers were read
system.cpu2.num_cc_register_writes            7906001                       # number of times the CC registers were written
system.cpu2.num_conditional_control_insts       616104                       # number of instructions that are conditional controls
system.cpu2.num_fp_alu_accesses                 20475                       # Number of float alu accesses
system.cpu2.num_fp_insts                        20475                       # number of float instructions
system.cpu2.num_fp_register_reads               25306                       # number of times the floating registers were read
system.cpu2.num_fp_register_writes              17437                       # number of times the floating registers were written
system.cpu2.num_func_calls                       1843                       # number of times a function call or return occured
system.cpu2.num_idle_cycles              13599264.088596                       # Number of idle cycles
system.cpu2.num_int_alu_accesses             28377979                       # Number of integer alu accesses
system.cpu2.num_int_insts                    28377979                       # number of integer instructions
system.cpu2.num_int_register_reads           71364526                       # number of times the integer registers were read
system.cpu2.num_int_register_writes          24971258                       # number of times the integer registers were written
system.cpu2.num_load_insts                    8320088                       # Number of load instructions
system.cpu2.num_mem_refs                     12168880                       # number of memory refs
system.cpu2.num_store_insts                   3848792                       # Number of store instructions
system.cpu2.num_vec_alu_accesses                    0                       # Number of vector alu accesses
system.cpu2.num_vec_insts                           0                       # number of vector instructions
system.cpu2.num_vec_register_reads                  0                       # number of times the vector registers were read
system.cpu2.num_vec_register_writes                 0                       # number of times the vector registers were written
system.cpu2.op_class::No_OpClass                 3976      0.01%      0.01% # Class of executed instruction
system.cpu2.op_class::IntAlu                 15123812     53.26%     53.28% # Class of executed instruction
system.cpu2.op_class::IntMult                 1068751      3.76%     57.04% # Class of executed instruction
system.cpu2.op_class::IntDiv                    16504      0.06%     57.10% # Class of executed instruction
system.cpu2.op_class::FloatAdd                   3810      0.01%     57.11% # Class of executed instruction
system.cpu2.op_class::FloatCmp                      0      0.00%     57.11% # Class of executed instruction
system.cpu2.op_class::FloatCvt                      0      0.00%     57.11% # Class of executed instruction
system.cpu2.op_class::FloatMult                     0      0.00%     57.11% # Class of executed instruction
system.cpu2.op_class::FloatMultAcc                  0      0.00%     57.11% # Class of executed instruction
system.cpu2.op_class::FloatDiv                      0      0.00%     57.11% # Class of executed instruction
system.cpu2.op_class::FloatMisc                     0      0.00%     57.11% # Class of executed instruction
system.cpu2.op_class::FloatSqrt                     0      0.00%     57.11% # Class of executed instruction
system.cpu2.op_class::SimdAdd                       0      0.00%     57.11% # Class of executed instruction
system.cpu2.op_class::SimdAddAcc                    0      0.00%     57.11% # Class of executed instruction
system.cpu2.op_class::SimdAlu                     898      0.00%     57.12% # Class of executed instruction
system.cpu2.op_class::SimdCmp                       0      0.00%     57.12% # Class of executed instruction
system.cpu2.op_class::SimdCvt                      20      0.00%     57.12% # Class of executed instruction
system.cpu2.op_class::SimdMisc                   1244      0.00%     57.12% # Class of executed instruction
system.cpu2.op_class::SimdMult                      0      0.00%     57.12% # Class of executed instruction
system.cpu2.op_class::SimdMultAcc                   0      0.00%     57.12% # Class of executed instruction
system.cpu2.op_class::SimdShift                     0      0.00%     57.12% # Class of executed instruction
system.cpu2.op_class::SimdShiftAcc                  0      0.00%     57.12% # Class of executed instruction
system.cpu2.op_class::SimdDiv                       0      0.00%     57.12% # Class of executed instruction
system.cpu2.op_class::SimdSqrt                      0      0.00%     57.12% # Class of executed instruction
system.cpu2.op_class::SimdFloatAdd               2302      0.01%     57.13% # Class of executed instruction
system.cpu2.op_class::SimdFloatAlu                  0      0.00%     57.13% # Class of executed instruction
system.cpu2.op_class::SimdFloatCmp                  0      0.00%     57.13% # Class of executed instruction
system.cpu2.op_class::SimdFloatCvt               1504      0.01%     57.13% # Class of executed instruction
system.cpu2.op_class::SimdFloatDiv                232      0.00%     57.13% # Class of executed instruction
system.cpu2.op_class::SimdFloatMisc                 0      0.00%     57.13% # Class of executed instruction
system.cpu2.op_class::SimdFloatMult              2704      0.01%     57.14% # Class of executed instruction
system.cpu2.op_class::SimdFloatMultAcc              0      0.00%     57.14% # Class of executed instruction
system.cpu2.op_class::SimdFloatSqrt                 0      0.00%     57.14% # Class of executed instruction
system.cpu2.op_class::SimdReduceAdd                 0      0.00%     57.14% # Class of executed instruction
system.cpu2.op_class::SimdReduceAlu                 0      0.00%     57.14% # Class of executed instruction
system.cpu2.op_class::SimdReduceCmp                 0      0.00%     57.14% # Class of executed instruction
system.cpu2.op_class::SimdFloatReduceAdd            0      0.00%     57.14% # Class of executed instruction
system.cpu2.op_class::SimdFloatReduceCmp            0      0.00%     57.14% # Class of executed instruction
system.cpu2.op_class::SimdAes                       0      0.00%     57.14% # Class of executed instruction
system.cpu2.op_class::SimdAesMix                    0      0.00%     57.14% # Class of executed instruction
system.cpu2.op_class::SimdSha1Hash                  0      0.00%     57.14% # Class of executed instruction
system.cpu2.op_class::SimdSha1Hash2                 0      0.00%     57.14% # Class of executed instruction
system.cpu2.op_class::SimdSha256Hash                0      0.00%     57.14% # Class of executed instruction
system.cpu2.op_class::SimdSha256Hash2               0      0.00%     57.14% # Class of executed instruction
system.cpu2.op_class::SimdShaSigma2                 0      0.00%     57.14% # Class of executed instruction
system.cpu2.op_class::SimdShaSigma3                 0      0.00%     57.14% # Class of executed instruction
system.cpu2.op_class::SimdPredAlu                   0      0.00%     57.14% # Class of executed instruction
system.cpu2.op_class::MemRead                 8314883     29.28%     86.43% # Class of executed instruction
system.cpu2.op_class::MemWrite                3847164     13.55%     99.98% # Class of executed instruction
system.cpu2.op_class::FloatMemRead               5205      0.02%     99.99% # Class of executed instruction
system.cpu2.op_class::FloatMemWrite              1628      0.01%    100.00% # Class of executed instruction
system.cpu2.op_class::IprAccess                     0      0.00%    100.00% # Class of executed instruction
system.cpu2.op_class::InstPrefetch                  0      0.00%    100.00% # Class of executed instruction
system.cpu2.op_class::total                  28394637                       # Class of executed instruction
system.cpu3.Branches                          1401628                       # Number of branches fetched
system.cpu3.committedInsts                   20864916                       # Number of instructions committed
system.cpu3.committedOps                     36178647                       # Number of ops (including micro ops) committed
system.cpu3.idle_fraction                    0.000356                       # Percentage of idle cycles
system.cpu3.not_idle_fraction                0.999644                       # Percentage of non-idle cycles
system.cpu3.numCycles                       659273503                       # number of cpu cycles simulated
system.cpu3.numWorkItemsCompleted                   0                       # number of work items this cpu completed
system.cpu3.numWorkItemsStarted                     0                       # number of work items this cpu started
system.cpu3.num_busy_cycles              659038960.480173                       # Number of busy cycles
system.cpu3.num_cc_register_reads             6154892                       # number of times the CC registers were read
system.cpu3.num_cc_register_writes           10261980                       # number of times the CC registers were written
system.cpu3.num_conditional_control_insts      1036963                       # number of instructions that are conditional controls
system.cpu3.num_fp_alu_accesses                 22552                       # Number of float alu accesses
system.cpu3.num_fp_insts                        22552                       # number of float instructions
system.cpu3.num_fp_register_reads               28296                       # number of times the floating registers were read
system.cpu3.num_fp_register_writes              19016                       # number of times the floating registers were written
system.cpu3.num_func_calls                     194937                       # number of times a function call or return occured
system.cpu3.num_idle_cycles              234542.519827                       # Number of idle cycles
system.cpu3.num_int_alu_accesses             36137538                       # Number of integer alu accesses
system.cpu3.num_int_insts                    36137538                       # number of integer instructions
system.cpu3.num_int_register_reads           87527906                       # number of times the integer registers were read
system.cpu3.num_int_register_writes          31489201                       # number of times the integer registers were written
system.cpu3.num_load_insts                    9398448                       # Number of load instructions
system.cpu3.num_mem_refs                     13815869                       # number of memory refs
system.cpu3.num_store_insts                   4417421                       # Number of store instructions
system.cpu3.num_vec_alu_accesses                    0                       # Number of vector alu accesses
system.cpu3.num_vec_insts                           0                       # number of vector instructions
system.cpu3.num_vec_register_reads                  0                       # number of times the vector registers were read
system.cpu3.num_vec_register_writes                 0                       # number of times the vector registers were written
system.cpu3.op_class::No_OpClass                27152      0.08%      0.08% # Class of executed instruction
system.cpu3.op_class::IntAlu                 21165779     58.50%     58.58% # Class of executed instruction
system.cpu3.op_class::IntMult                 1138215      3.15%     61.72% # Class of executed instruction
system.cpu3.op_class::IntDiv                    17564      0.05%     61.77% # Class of executed instruction
system.cpu3.op_class::FloatAdd                   3932      0.01%     61.78% # Class of executed instruction
system.cpu3.op_class::FloatCmp                      0      0.00%     61.78% # Class of executed instruction
system.cpu3.op_class::FloatCvt                      0      0.00%     61.78% # Class of executed instruction
system.cpu3.op_class::FloatMult                     0      0.00%     61.78% # Class of executed instruction
system.cpu3.op_class::FloatMultAcc                  0      0.00%     61.78% # Class of executed instruction
system.cpu3.op_class::FloatDiv                      0      0.00%     61.78% # Class of executed instruction
system.cpu3.op_class::FloatMisc                     0      0.00%     61.78% # Class of executed instruction
system.cpu3.op_class::FloatSqrt                     0      0.00%     61.78% # Class of executed instruction
system.cpu3.op_class::SimdAdd                       0      0.00%     61.78% # Class of executed instruction
system.cpu3.op_class::SimdAddAcc                    0      0.00%     61.78% # Class of executed instruction
system.cpu3.op_class::SimdAlu                    1654      0.00%     61.79% # Class of executed instruction
system.cpu3.op_class::SimdCmp                       0      0.00%     61.79% # Class of executed instruction
system.cpu3.op_class::SimdCvt                     210      0.00%     61.79% # Class of executed instruction
system.cpu3.op_class::SimdMisc                   1557      0.00%     61.79% # Class of executed instruction
system.cpu3.op_class::SimdMult                      0      0.00%     61.79% # Class of executed instruction
system.cpu3.op_class::SimdMultAcc                   0      0.00%     61.79% # Class of executed instruction
system.cpu3.op_class::SimdShift                     0      0.00%     61.79% # Class of executed instruction
system.cpu3.op_class::SimdShiftAcc                  0      0.00%     61.79% # Class of executed instruction
system.cpu3.op_class::SimdDiv                       0      0.00%     61.79% # Class of executed instruction
system.cpu3.op_class::SimdSqrt                      0      0.00%     61.79% # Class of executed instruction
system.cpu3.op_class::SimdFloatAdd               2310      0.01%     61.80% # Class of executed instruction
system.cpu3.op_class::SimdFloatAlu                  0      0.00%     61.80% # Class of executed instruction
system.cpu3.op_class::SimdFloatCmp                  0      0.00%     61.80% # Class of executed instruction
system.cpu3.op_class::SimdFloatCvt               1497      0.00%     61.80% # Class of executed instruction
system.cpu3.op_class::SimdFloatDiv                231      0.00%     61.80% # Class of executed instruction
system.cpu3.op_class::SimdFloatMisc                 0      0.00%     61.80% # Class of executed instruction
system.cpu3.op_class::SimdFloatMult              2712      0.01%     61.81% # Class of executed instruction
system.cpu3.op_class::SimdFloatMultAcc              0      0.00%     61.81% # Class of executed instruction
system.cpu3.op_class::SimdFloatSqrt                 0      0.00%     61.81% # Class of executed instruction
system.cpu3.op_class::SimdReduceAdd                 0      0.00%     61.81% # Class of executed instruction
system.cpu3.op_class::SimdReduceAlu                 0      0.00%     61.81% # Class of executed instruction
system.cpu3.op_class::SimdReduceCmp                 0      0.00%     61.81% # Class of executed instruction
system.cpu3.op_class::SimdFloatReduceAdd            0      0.00%     61.81% # Class of executed instruction
system.cpu3.op_class::SimdFloatReduceCmp            0      0.00%     61.81% # Class of executed instruction
system.cpu3.op_class::SimdAes                       0      0.00%     61.81% # Class of executed instruction
system.cpu3.op_class::SimdAesMix                    0      0.00%     61.81% # Class of executed instruction
system.cpu3.op_class::SimdSha1Hash                  0      0.00%     61.81% # Class of executed instruction
system.cpu3.op_class::SimdSha1Hash2                 0      0.00%     61.81% # Class of executed instruction
system.cpu3.op_class::SimdSha256Hash                0      0.00%     61.81% # Class of executed instruction
system.cpu3.op_class::SimdSha256Hash2               0      0.00%     61.81% # Class of executed instruction
system.cpu3.op_class::SimdShaSigma2                 0      0.00%     61.81% # Class of executed instruction
system.cpu3.op_class::SimdShaSigma3                 0      0.00%     61.81% # Class of executed instruction
system.cpu3.op_class::SimdPredAlu                   0      0.00%     61.81% # Class of executed instruction
system.cpu3.op_class::MemRead                 9392993     25.96%     87.77% # Class of executed instruction
system.cpu3.op_class::MemWrite                4415481     12.20%     99.98% # Class of executed instruction
system.cpu3.op_class::FloatMemRead               5455      0.02%     99.99% # Class of executed instruction
system.cpu3.op_class::FloatMemWrite              1940      0.01%    100.00% # Class of executed instruction
system.cpu3.op_class::IprAccess                     0      0.00%    100.00% # Class of executed instruction
system.cpu3.op_class::InstPrefetch                  0      0.00%    100.00% # Class of executed instruction
system.cpu3.op_class::total                  36178682                       # Class of executed instruction
system.noc_network.Directory.incomplete_times_seqr        11315                      
system.noc_network.Directory.miss_latency_hist_seqr.first_response_to_completion::bucket_size            8                      
system.noc_network.Directory.miss_latency_hist_seqr.first_response_to_completion::max_bucket           79                      
system.noc_network.Directory.miss_latency_hist_seqr.first_response_to_completion::samples            1                      
system.noc_network.Directory.miss_latency_hist_seqr.first_response_to_completion::mean           72                      
system.noc_network.Directory.miss_latency_hist_seqr.first_response_to_completion::gmean           72                      
system.noc_network.Directory.miss_latency_hist_seqr.first_response_to_completion::stdev          nan                      
system.noc_network.Directory.miss_latency_hist_seqr.first_response_to_completion |           0      0.00%      0.00% |           0      0.00%      0.00% |           0      0.00%      0.00% |           0      0.00%      0.00% |           0      0.00%      0.00% |           0      0.00%      0.00% |           0      0.00%      0.00% |           0      0.00%      0.00% |           0      0.00%      0.00% |           1    100.00%    100.00%
system.noc_network.Directory.miss_latency_hist_seqr.first_response_to_completion::total            1                      
system.noc_network.Directory.miss_latency_hist_seqr.forward_to_first_response::bucket_size            1                      
system.noc_network.Directory.miss_latency_hist_seqr.forward_to_first_response::max_bucket            9                      
system.noc_network.Directory.miss_latency_hist_seqr.forward_to_first_response::samples            1                      
system.noc_network.Directory.miss_latency_hist_seqr.forward_to_first_response::stdev          nan                      
system.noc_network.Directory.miss_latency_hist_seqr.forward_to_first_response |           1    100.00%    100.00% |           0      0.00%    100.00% |           0      0.00%    100.00% |           0      0.00%    100.00% |           0      0.00%    100.00% |           0      0.00%    100.00% |           0      0.00%    100.00% |           0      0.00%    100.00% |           0      0.00%    100.00% |           0      0.00%    100.00%
system.noc_network.Directory.miss_latency_hist_seqr.forward_to_first_response::total            1                      
system.noc_network.Directory.miss_latency_hist_seqr.initial_to_forward::bucket_size            1                      
system.noc_network.Directory.miss_latency_hist_seqr.initial_to_forward::max_bucket            9                      
system.noc_network.Directory.miss_latency_hist_seqr.initial_to_forward::samples            1                      
system.noc_network.Directory.miss_latency_hist_seqr.initial_to_forward::stdev          nan                      
system.noc_network.Directory.miss_latency_hist_seqr.initial_to_forward |           1    100.00%    100.00% |           0      0.00%    100.00% |           0      0.00%    100.00% |           0      0.00%    100.00% |           0      0.00%    100.00% |           0      0.00%    100.00% |           0      0.00%    100.00% |           0      0.00%    100.00% |           0      0.00%    100.00% |           0      0.00%    100.00%
system.noc_network.Directory.miss_latency_hist_seqr.initial_to_forward::total            1                      
system.noc_network.Directory.miss_latency_hist_seqr.issue_to_initial_request::bucket_size            1                      
system.noc_network.Directory.miss_latency_hist_seqr.issue_to_initial_request::max_bucket            9                      
system.noc_network.Directory.miss_latency_hist_seqr.issue_to_initial_request::samples            1                      
system.noc_network.Directory.miss_latency_hist_seqr.issue_to_initial_request::stdev          nan                      
system.noc_network.Directory.miss_latency_hist_seqr.issue_to_initial_request |           1    100.00%    100.00% |           0      0.00%    100.00% |           0      0.00%    100.00% |           0      0.00%    100.00% |           0      0.00%    100.00% |           0      0.00%    100.00% |           0      0.00%    100.00% |           0      0.00%    100.00% |           0      0.00%    100.00% |           0      0.00%    100.00%
system.noc_network.Directory.miss_latency_hist_seqr.issue_to_initial_request::total            1                      
system.noc_network.Directory.miss_mach_latency_hist_seqr::bucket_size            8                      
system.noc_network.Directory.miss_mach_latency_hist_seqr::max_bucket           79                      
system.noc_network.Directory.miss_mach_latency_hist_seqr::samples        11316                      
system.noc_network.Directory.miss_mach_latency_hist_seqr::mean     0.006363                      
system.noc_network.Directory.miss_mach_latency_hist_seqr::stdev     0.676840                      
system.noc_network.Directory.miss_mach_latency_hist_seqr |       11315     99.99%     99.99% |           0      0.00%     99.99% |           0      0.00%     99.99% |           0      0.00%     99.99% |           0      0.00%     99.99% |           0      0.00%     99.99% |           0      0.00%     99.99% |           0      0.00%     99.99% |           0      0.00%     99.99% |           1      0.01%    100.00%
system.noc_network.Directory.miss_mach_latency_hist_seqr::total        11316                      
system.noc_network.Directory_Controller.GETX |     2096829      7.80%      7.80% |    24769196     92.20%    100.00%
system.noc_network.Directory_Controller.GETX::total     26866025                      
system.noc_network.Directory_Controller.I.GETX |         724      6.40%      6.40% |       10592     93.60%    100.00%
system.noc_network.Directory_Controller.I.GETX::total        11316                      
system.noc_network.Directory_Controller.IM.Memory_Data |         724      6.40%      6.40% |       10592     93.60%    100.00%
system.noc_network.Directory_Controller.IM.Memory_Data::total        11316                      
system.noc_network.Directory_Controller.M.GETX |     2096105      7.81%      7.81% |    24758604     92.19%    100.00%
system.noc_network.Directory_Controller.M.GETX::total     26854709                      
system.noc_network.Directory_Controller.M.PUTX |         594      5.56%      5.56% |       10092     94.44%    100.00%
system.noc_network.Directory_Controller.M.PUTX::total        10686                      
system.noc_network.Directory_Controller.MI.Memory_Ack |         594      5.56%      5.56% |       10092     94.44%    100.00%
system.noc_network.Directory_Controller.MI.Memory_Ack::total        10686                      
system.noc_network.Directory_Controller.Memory_Ack |         594      5.56%      5.56% |       10092     94.44%    100.00%
system.noc_network.Directory_Controller.Memory_Ack::total        10686                      
system.noc_network.Directory_Controller.Memory_Data |         724      6.40%      6.40% |       10592     93.60%    100.00%
system.noc_network.Directory_Controller.Memory_Data::total        11316                      
system.noc_network.Directory_Controller.PUTX |         594      5.56%      5.56% |       10092     94.44%    100.00%
system.noc_network.Directory_Controller.PUTX::total        10686                      
system.noc_network.IFETCH.Directory.miss_type_mach_latency_hist_seqr::bucket_size            8                      
system.noc_network.IFETCH.Directory.miss_type_mach_latency_hist_seqr::max_bucket           79                      
system.noc_network.IFETCH.Directory.miss_type_mach_latency_hist_seqr::samples         1614                      
system.noc_network.IFETCH.Directory.miss_type_mach_latency_hist_seqr::mean     0.044610                      
system.noc_network.IFETCH.Directory.miss_type_mach_latency_hist_seqr::stdev     1.792176                      
system.noc_network.IFETCH.Directory.miss_type_mach_latency_hist_seqr |        1613     99.94%     99.94% |           0      0.00%     99.94% |           0      0.00%     99.94% |           0      0.00%     99.94% |           0      0.00%     99.94% |           0      0.00%     99.94% |           0      0.00%     99.94% |           0      0.00%     99.94% |           0      0.00%     99.94% |           1      0.06%    100.00%
system.noc_network.IFETCH.Directory.miss_type_mach_latency_hist_seqr::total         1614                      
system.noc_network.IFETCH.L1Cache.miss_type_mach_latency_hist_seqr::bucket_size            1                      
system.noc_network.IFETCH.L1Cache.miss_type_mach_latency_hist_seqr::max_bucket            9                      
system.noc_network.IFETCH.L1Cache.miss_type_mach_latency_hist_seqr::samples     24747416                      
system.noc_network.IFETCH.L1Cache.miss_type_mach_latency_hist_seqr |    24747416    100.00%    100.00% |           0      0.00%    100.00% |           0      0.00%    100.00% |           0      0.00%    100.00% |           0      0.00%    100.00% |           0      0.00%    100.00% |           0      0.00%    100.00% |           0      0.00%    100.00% |           0      0.00%    100.00% |           0      0.00%    100.00%
system.noc_network.IFETCH.L1Cache.miss_type_mach_latency_hist_seqr::total     24747416                      
system.noc_network.IFETCH.hit_latency_hist_seqr::bucket_size            1                      
system.noc_network.IFETCH.hit_latency_hist_seqr::max_bucket            9                      
system.noc_network.IFETCH.hit_latency_hist_seqr::samples     45645735                      
system.noc_network.IFETCH.hit_latency_hist_seqr |    45645735    100.00%    100.00% |           0      0.00%    100.00% |           0      0.00%    100.00% |           0      0.00%    100.00% |           0      0.00%    100.00% |           0      0.00%    100.00% |           0      0.00%    100.00% |           0      0.00%    100.00% |           0      0.00%    100.00% |           0      0.00%    100.00%
system.noc_network.IFETCH.hit_latency_hist_seqr::total     45645735                      
system.noc_network.IFETCH.latency_hist_seqr::bucket_size            8                      
system.noc_network.IFETCH.latency_hist_seqr::max_bucket           79                      
system.noc_network.IFETCH.latency_hist_seqr::samples     70394765                      
system.noc_network.IFETCH.latency_hist_seqr::mean     0.000001                      
system.noc_network.IFETCH.latency_hist_seqr::stdev     0.008581                      
system.noc_network.IFETCH.latency_hist_seqr |    70394764    100.00%    100.00% |           0      0.00%    100.00% |           0      0.00%    100.00% |           0      0.00%    100.00% |           0      0.00%    100.00% |           0      0.00%    100.00% |           0      0.00%    100.00% |           0      0.00%    100.00% |           0      0.00%    100.00% |           1      0.00%    100.00%
system.noc_network.IFETCH.latency_hist_seqr::total     70394765                      
system.noc_network.IFETCH.miss_latency_hist_seqr::bucket_size            8                      
system.noc_network.IFETCH.miss_latency_hist_seqr::max_bucket           79                      
system.noc_network.IFETCH.miss_latency_hist_seqr::samples     24749030                      
system.noc_network.IFETCH.miss_latency_hist_seqr::mean     0.000003                      
system.noc_network.IFETCH.miss_latency_hist_seqr::stdev     0.014473                      
system.noc_network.IFETCH.miss_latency_hist_seqr |    24749029    100.00%    100.00% |           0      0.00%    100.00% |           0      0.00%    100.00% |           0      0.00%    100.00% |           0      0.00%    100.00% |           0      0.00%    100.00% |           0      0.00%    100.00% |           0      0.00%    100.00% |           0      0.00%    100.00% |           1      0.00%    100.00%
system.noc_network.IFETCH.miss_latency_hist_seqr::total     24749030                      
system.noc_network.L1Cache.incomplete_times_seqr     26854709                      
system.noc_network.L1Cache.miss_mach_latency_hist_seqr::bucket_size            1                      
system.noc_network.L1Cache.miss_mach_latency_hist_seqr::max_bucket            9                      
system.noc_network.L1Cache.miss_mach_latency_hist_seqr::samples     26854709                      
system.noc_network.L1Cache.miss_mach_latency_hist_seqr |    26854709    100.00%    100.00% |           0      0.00%    100.00% |           0      0.00%    100.00% |           0      0.00%    100.00% |           0      0.00%    100.00% |           0      0.00%    100.00% |           0      0.00%    100.00% |           0      0.00%    100.00% |           0      0.00%    100.00% |           0      0.00%    100.00%
system.noc_network.L1Cache.miss_mach_latency_hist_seqr::total     26854709                      
system.noc_network.L1Cache_Controller.Data |        1708      0.01%      0.01% |     8884634     33.07%     33.08% |     8933578     33.25%     66.33% |     9046105     33.67%    100.00%
system.noc_network.L1Cache_Controller.Data::total     26866025                      
system.noc_network.L1Cache_Controller.Fwd_GETX |         219      0.00%      0.00% |     8884129     33.08%     33.08% |     8933262     33.27%     66.35% |     9037099     33.65%    100.00%
system.noc_network.L1Cache_Controller.Fwd_GETX::total     26854709                      
system.noc_network.L1Cache_Controller.I.Ifetch |        1038      0.00%      0.00% |     8184337     33.07%     33.07% |     8231535     33.26%     66.33% |     8332120     33.67%    100.00%
system.noc_network.L1Cache_Controller.I.Ifetch::total     24749030                      
system.noc_network.L1Cache_Controller.I.Load |         355      0.02%      0.02% |      700081     33.09%     33.11% |      701818     33.18%     66.29% |      713214     33.71%    100.00%
system.noc_network.L1Cache_Controller.I.Load::total      2115468                      
system.noc_network.L1Cache_Controller.I.Replacement |          83      5.81%      5.81% |         416     29.13%     34.94% |         545     38.17%     73.11% |         384     26.89%    100.00%
system.noc_network.L1Cache_Controller.I.Replacement::total         1428                      
system.noc_network.L1Cache_Controller.I.Store |         315     20.63%     20.63% |         216     14.15%     34.77% |         225     14.73%     49.51% |         771     50.49%    100.00%
system.noc_network.L1Cache_Controller.I.Store::total         1527                      
system.noc_network.L1Cache_Controller.IM.Data |         315     20.63%     20.63% |         216     14.15%     34.77% |         225     14.73%     49.51% |         771     50.49%    100.00%
system.noc_network.L1Cache_Controller.IM.Data::total         1527                      
system.noc_network.L1Cache_Controller.IS.Data |        1393      0.01%      0.01% |     8884418     33.07%     33.08% |     8933353     33.25%     66.33% |     9045334     33.67%    100.00%
system.noc_network.L1Cache_Controller.IS.Data::total     26864498                      
system.noc_network.L1Cache_Controller.Ifetch |       34970      0.05%      0.05% |    21699376     30.83%     30.87% |    21699258     30.83%     61.70% |    26961161     38.30%    100.00%
system.noc_network.L1Cache_Controller.Ifetch::total     70394765                      
system.noc_network.L1Cache_Controller.Load |        5596      0.03%      0.03% |     6656186     31.78%     31.81% |     6656153     31.78%     63.59% |     7625911     36.41%    100.00%
system.noc_network.L1Cache_Controller.Load::total     20943846                      
system.noc_network.L1Cache_Controller.M.Fwd_GETX |         219      0.00%      0.00% |     8884129     33.08%     33.08% |     8933262     33.27%     66.35% |     9037099     33.65%    100.00%
system.noc_network.L1Cache_Controller.M.Fwd_GETX::total     26854709                      
system.noc_network.L1Cache_Controller.M.Ifetch |       33932      0.07%      0.07% |    13515039     29.61%     29.68% |    13467723     29.50%     59.19% |    18629041     40.81%    100.00%
system.noc_network.L1Cache_Controller.M.Ifetch::total     45645735                      
system.noc_network.L1Cache_Controller.M.Load |        5241      0.03%      0.03% |     5956105     31.63%     31.66% |     5954335     31.62%     63.29% |     6912697     36.71%    100.00%
system.noc_network.L1Cache_Controller.M.Load::total     18828378                      
system.noc_network.L1Cache_Controller.M.Replacement |        1234     11.55%     11.55% |         424      3.97%     15.52% |         244      2.28%     17.80% |        8784     82.20%    100.00%
system.noc_network.L1Cache_Controller.M.Replacement::total        10686                      
system.noc_network.L1Cache_Controller.M.Store |        5275      0.03%      0.03% |     5512671     32.01%     32.04% |     5512666     32.01%     64.06% |     6189362     35.94%    100.00%
system.noc_network.L1Cache_Controller.M.Store::total     17219974                      
system.noc_network.L1Cache_Controller.MI.Writeback_Ack |        1234     11.55%     11.55% |         424      3.97%     15.52% |         244      2.28%     17.80% |        8784     82.20%    100.00%
system.noc_network.L1Cache_Controller.MI.Writeback_Ack::total        10686                      
system.noc_network.L1Cache_Controller.Replacement |        1317     10.87%     10.87% |         840      6.93%     17.81% |         789      6.51%     24.32% |        9168     75.68%    100.00%
system.noc_network.L1Cache_Controller.Replacement::total        12114                      
system.noc_network.L1Cache_Controller.Store |        5590      0.03%      0.03% |     5512887     32.01%     32.04% |     5512891     32.01%     64.06% |     6190133     35.94%    100.00%
system.noc_network.L1Cache_Controller.Store::total     17221501                      
system.noc_network.L1Cache_Controller.Writeback_Ack |        1234     11.55%     11.55% |         424      3.97%     15.52% |         244      2.28%     17.80% |        8784     82.20%    100.00%
system.noc_network.L1Cache_Controller.Writeback_Ack::total        10686                      
system.noc_network.LD.Directory.miss_type_mach_latency_hist_seqr::bucket_size            1                      
system.noc_network.LD.Directory.miss_type_mach_latency_hist_seqr::max_bucket            9                      
system.noc_network.LD.Directory.miss_type_mach_latency_hist_seqr::samples         8497                      
system.noc_network.LD.Directory.miss_type_mach_latency_hist_seqr |        8497    100.00%    100.00% |           0      0.00%    100.00% |           0      0.00%    100.00% |           0      0.00%    100.00% |           0      0.00%    100.00% |           0      0.00%    100.00% |           0      0.00%    100.00% |           0      0.00%    100.00% |           0      0.00%    100.00% |           0      0.00%    100.00%
system.noc_network.LD.Directory.miss_type_mach_latency_hist_seqr::total         8497                      
system.noc_network.LD.L1Cache.miss_type_mach_latency_hist_seqr::bucket_size            1                      
system.noc_network.LD.L1Cache.miss_type_mach_latency_hist_seqr::max_bucket            9                      
system.noc_network.LD.L1Cache.miss_type_mach_latency_hist_seqr::samples      2106971                      
system.noc_network.LD.L1Cache.miss_type_mach_latency_hist_seqr |     2106971    100.00%    100.00% |           0      0.00%    100.00% |           0      0.00%    100.00% |           0      0.00%    100.00% |           0      0.00%    100.00% |           0      0.00%    100.00% |           0      0.00%    100.00% |           0      0.00%    100.00% |           0      0.00%    100.00% |           0      0.00%    100.00%
system.noc_network.LD.L1Cache.miss_type_mach_latency_hist_seqr::total      2106971                      
system.noc_network.LD.hit_latency_hist_seqr::bucket_size            1                      
system.noc_network.LD.hit_latency_hist_seqr::max_bucket            9                      
system.noc_network.LD.hit_latency_hist_seqr::samples     18828378                      
system.noc_network.LD.hit_latency_hist_seqr |    18828378    100.00%    100.00% |           0      0.00%    100.00% |           0      0.00%    100.00% |           0      0.00%    100.00% |           0      0.00%    100.00% |           0      0.00%    100.00% |           0      0.00%    100.00% |           0      0.00%    100.00% |           0      0.00%    100.00% |           0      0.00%    100.00%
system.noc_network.LD.hit_latency_hist_seqr::total     18828378                      
system.noc_network.LD.latency_hist_seqr::bucket_size            1                      
system.noc_network.LD.latency_hist_seqr::max_bucket            9                      
system.noc_network.LD.latency_hist_seqr::samples     20943846                      
system.noc_network.LD.latency_hist_seqr  |    20943846    100.00%    100.00% |           0      0.00%    100.00% |           0      0.00%    100.00% |           0      0.00%    100.00% |           0      0.00%    100.00% |           0      0.00%    100.00% |           0      0.00%    100.00% |           0      0.00%    100.00% |           0      0.00%    100.00% |           0      0.00%    100.00%
system.noc_network.LD.latency_hist_seqr::total     20943846                      
system.noc_network.LD.miss_latency_hist_seqr::bucket_size            1                      
system.noc_network.LD.miss_latency_hist_seqr::max_bucket            9                      
system.noc_network.LD.miss_latency_hist_seqr::samples      2115468                      
system.noc_network.LD.miss_latency_hist_seqr |     2115468    100.00%    100.00% |           0      0.00%    100.00% |           0      0.00%    100.00% |           0      0.00%    100.00% |           0      0.00%    100.00% |           0      0.00%    100.00% |           0      0.00%    100.00% |           0      0.00%    100.00% |           0      0.00%    100.00% |           0      0.00%    100.00%
system.noc_network.LD.miss_latency_hist_seqr::total      2115468                      
system.noc_network.Locked_RMW_Read.Directory.miss_type_mach_latency_hist_seqr::bucket_size            1                      
system.noc_network.Locked_RMW_Read.Directory.miss_type_mach_latency_hist_seqr::max_bucket            9                      
system.noc_network.Locked_RMW_Read.Directory.miss_type_mach_latency_hist_seqr::samples            5                      
system.noc_network.Locked_RMW_Read.Directory.miss_type_mach_latency_hist_seqr |           5    100.00%    100.00% |           0      0.00%    100.00% |           0      0.00%    100.00% |           0      0.00%    100.00% |           0      0.00%    100.00% |           0      0.00%    100.00% |           0      0.00%    100.00% |           0      0.00%    100.00% |           0      0.00%    100.00% |           0      0.00%    100.00%
system.noc_network.Locked_RMW_Read.Directory.miss_type_mach_latency_hist_seqr::total            5                      
system.noc_network.Locked_RMW_Read.L1Cache.miss_type_mach_latency_hist_seqr::bucket_size            1                      
system.noc_network.Locked_RMW_Read.L1Cache.miss_type_mach_latency_hist_seqr::max_bucket            9                      
system.noc_network.Locked_RMW_Read.L1Cache.miss_type_mach_latency_hist_seqr::samples           72                      
system.noc_network.Locked_RMW_Read.L1Cache.miss_type_mach_latency_hist_seqr |          72    100.00%    100.00% |           0      0.00%    100.00% |           0      0.00%    100.00% |           0      0.00%    100.00% |           0      0.00%    100.00% |           0      0.00%    100.00% |           0      0.00%    100.00% |           0      0.00%    100.00% |           0      0.00%    100.00% |           0      0.00%    100.00%
system.noc_network.Locked_RMW_Read.L1Cache.miss_type_mach_latency_hist_seqr::total           72                      
system.noc_network.Locked_RMW_Read.hit_latency_hist_seqr::bucket_size            1                      
system.noc_network.Locked_RMW_Read.hit_latency_hist_seqr::max_bucket            9                      
system.noc_network.Locked_RMW_Read.hit_latency_hist_seqr::samples          349                      
system.noc_network.Locked_RMW_Read.hit_latency_hist_seqr |         349    100.00%    100.00% |           0      0.00%    100.00% |           0      0.00%    100.00% |           0      0.00%    100.00% |           0      0.00%    100.00% |           0      0.00%    100.00% |           0      0.00%    100.00% |           0      0.00%    100.00% |           0      0.00%    100.00% |           0      0.00%    100.00%
system.noc_network.Locked_RMW_Read.hit_latency_hist_seqr::total          349                      
system.noc_network.Locked_RMW_Read.latency_hist_seqr::bucket_size            1                      
system.noc_network.Locked_RMW_Read.latency_hist_seqr::max_bucket            9                      
system.noc_network.Locked_RMW_Read.latency_hist_seqr::samples          426                      
system.noc_network.Locked_RMW_Read.latency_hist_seqr |         426    100.00%    100.00% |           0      0.00%    100.00% |           0      0.00%    100.00% |           0      0.00%    100.00% |           0      0.00%    100.00% |           0      0.00%    100.00% |           0      0.00%    100.00% |           0      0.00%    100.00% |           0      0.00%    100.00% |           0      0.00%    100.00%
system.noc_network.Locked_RMW_Read.latency_hist_seqr::total          426                      
system.noc_network.Locked_RMW_Read.miss_latency_hist_seqr::bucket_size            1                      
system.noc_network.Locked_RMW_Read.miss_latency_hist_seqr::max_bucket            9                      
system.noc_network.Locked_RMW_Read.miss_latency_hist_seqr::samples           77                      
system.noc_network.Locked_RMW_Read.miss_latency_hist_seqr |          77    100.00%    100.00% |           0      0.00%    100.00% |           0      0.00%    100.00% |           0      0.00%    100.00% |           0      0.00%    100.00% |           0      0.00%    100.00% |           0      0.00%    100.00% |           0      0.00%    100.00% |           0      0.00%    100.00% |           0      0.00%    100.00%
system.noc_network.Locked_RMW_Read.miss_latency_hist_seqr::total           77                      
system.noc_network.Locked_RMW_Write.hit_latency_hist_seqr::bucket_size            1                      
system.noc_network.Locked_RMW_Write.hit_latency_hist_seqr::max_bucket            9                      
system.noc_network.Locked_RMW_Write.hit_latency_hist_seqr::samples          426                      
system.noc_network.Locked_RMW_Write.hit_latency_hist_seqr |         426    100.00%    100.00% |           0      0.00%    100.00% |           0      0.00%    100.00% |           0      0.00%    100.00% |           0      0.00%    100.00% |           0      0.00%    100.00% |           0      0.00%    100.00% |           0      0.00%    100.00% |           0      0.00%    100.00% |           0      0.00%    100.00%
system.noc_network.Locked_RMW_Write.hit_latency_hist_seqr::total          426                      
system.noc_network.Locked_RMW_Write.latency_hist_seqr::bucket_size            1                      
system.noc_network.Locked_RMW_Write.latency_hist_seqr::max_bucket            9                      
system.noc_network.Locked_RMW_Write.latency_hist_seqr::samples          426                      
system.noc_network.Locked_RMW_Write.latency_hist_seqr |         426    100.00%    100.00% |           0      0.00%    100.00% |           0      0.00%    100.00% |           0      0.00%    100.00% |           0      0.00%    100.00% |           0      0.00%    100.00% |           0      0.00%    100.00% |           0      0.00%    100.00% |           0      0.00%    100.00% |           0      0.00%    100.00%
system.noc_network.Locked_RMW_Write.latency_hist_seqr::total          426                      
system.noc_network.RMW_Read.Directory.miss_type_mach_latency_hist_seqr::bucket_size            1                      
system.noc_network.RMW_Read.Directory.miss_type_mach_latency_hist_seqr::max_bucket            9                      
system.noc_network.RMW_Read.Directory.miss_type_mach_latency_hist_seqr::samples            7                      
system.noc_network.RMW_Read.Directory.miss_type_mach_latency_hist_seqr |           7    100.00%    100.00% |           0      0.00%    100.00% |           0      0.00%    100.00% |           0      0.00%    100.00% |           0      0.00%    100.00% |           0      0.00%    100.00% |           0      0.00%    100.00% |           0      0.00%    100.00% |           0      0.00%    100.00% |           0      0.00%    100.00%
system.noc_network.RMW_Read.Directory.miss_type_mach_latency_hist_seqr::total            7                      
system.noc_network.RMW_Read.L1Cache.miss_type_mach_latency_hist_seqr::bucket_size            1                      
system.noc_network.RMW_Read.L1Cache.miss_type_mach_latency_hist_seqr::max_bucket            9                      
system.noc_network.RMW_Read.L1Cache.miss_type_mach_latency_hist_seqr::samples            1                      
system.noc_network.RMW_Read.L1Cache.miss_type_mach_latency_hist_seqr::stdev          nan                      
system.noc_network.RMW_Read.L1Cache.miss_type_mach_latency_hist_seqr |           1    100.00%    100.00% |           0      0.00%    100.00% |           0      0.00%    100.00% |           0      0.00%    100.00% |           0      0.00%    100.00% |           0      0.00%    100.00% |           0      0.00%    100.00% |           0      0.00%    100.00% |           0      0.00%    100.00% |           0      0.00%    100.00%
system.noc_network.RMW_Read.L1Cache.miss_type_mach_latency_hist_seqr::total            1                      
system.noc_network.RMW_Read.hit_latency_hist_seqr::bucket_size            1                      
system.noc_network.RMW_Read.hit_latency_hist_seqr::max_bucket            9                      
system.noc_network.RMW_Read.hit_latency_hist_seqr::samples      5100483                      
system.noc_network.RMW_Read.hit_latency_hist_seqr |     5100483    100.00%    100.00% |           0      0.00%    100.00% |           0      0.00%    100.00% |           0      0.00%    100.00% |           0      0.00%    100.00% |           0      0.00%    100.00% |           0      0.00%    100.00% |           0      0.00%    100.00% |           0      0.00%    100.00% |           0      0.00%    100.00%
system.noc_network.RMW_Read.hit_latency_hist_seqr::total      5100483                      
system.noc_network.RMW_Read.latency_hist_seqr::bucket_size            1                      
system.noc_network.RMW_Read.latency_hist_seqr::max_bucket            9                      
system.noc_network.RMW_Read.latency_hist_seqr::samples      5100491                      
system.noc_network.RMW_Read.latency_hist_seqr |     5100491    100.00%    100.00% |           0      0.00%    100.00% |           0      0.00%    100.00% |           0      0.00%    100.00% |           0      0.00%    100.00% |           0      0.00%    100.00% |           0      0.00%    100.00% |           0      0.00%    100.00% |           0      0.00%    100.00% |           0      0.00%    100.00%
system.noc_network.RMW_Read.latency_hist_seqr::total      5100491                      
system.noc_network.RMW_Read.miss_latency_hist_seqr::bucket_size            1                      
system.noc_network.RMW_Read.miss_latency_hist_seqr::max_bucket            9                      
system.noc_network.RMW_Read.miss_latency_hist_seqr::samples            8                      
system.noc_network.RMW_Read.miss_latency_hist_seqr |           8    100.00%    100.00% |           0      0.00%    100.00% |           0      0.00%    100.00% |           0      0.00%    100.00% |           0      0.00%    100.00% |           0      0.00%    100.00% |           0      0.00%    100.00% |           0      0.00%    100.00% |           0      0.00%    100.00% |           0      0.00%    100.00%
system.noc_network.RMW_Read.miss_latency_hist_seqr::total            8                      
system.noc_network.ST.Directory.miss_type_mach_latency_hist_seqr::bucket_size            1                      
system.noc_network.ST.Directory.miss_type_mach_latency_hist_seqr::max_bucket            9                      
system.noc_network.ST.Directory.miss_type_mach_latency_hist_seqr::samples         1193                      
system.noc_network.ST.Directory.miss_type_mach_latency_hist_seqr |        1193    100.00%    100.00% |           0      0.00%    100.00% |           0      0.00%    100.00% |           0      0.00%    100.00% |           0      0.00%    100.00% |           0      0.00%    100.00% |           0      0.00%    100.00% |           0      0.00%    100.00% |           0      0.00%    100.00% |           0      0.00%    100.00%
system.noc_network.ST.Directory.miss_type_mach_latency_hist_seqr::total         1193                      
system.noc_network.ST.L1Cache.miss_type_mach_latency_hist_seqr::bucket_size            1                      
system.noc_network.ST.L1Cache.miss_type_mach_latency_hist_seqr::max_bucket            9                      
system.noc_network.ST.L1Cache.miss_type_mach_latency_hist_seqr::samples          249                      
system.noc_network.ST.L1Cache.miss_type_mach_latency_hist_seqr |         249    100.00%    100.00% |           0      0.00%    100.00% |           0      0.00%    100.00% |           0      0.00%    100.00% |           0      0.00%    100.00% |           0      0.00%    100.00% |           0      0.00%    100.00% |           0      0.00%    100.00% |           0      0.00%    100.00% |           0      0.00%    100.00%
system.noc_network.ST.L1Cache.miss_type_mach_latency_hist_seqr::total          249                      
system.noc_network.ST.hit_latency_hist_seqr::bucket_size            1                      
system.noc_network.ST.hit_latency_hist_seqr::max_bucket            9                      
system.noc_network.ST.hit_latency_hist_seqr::samples     12118716                      
system.noc_network.ST.hit_latency_hist_seqr |    12118716    100.00%    100.00% |           0      0.00%    100.00% |           0      0.00%    100.00% |           0      0.00%    100.00% |           0      0.00%    100.00% |           0      0.00%    100.00% |           0      0.00%    100.00% |           0      0.00%    100.00% |           0      0.00%    100.00% |           0      0.00%    100.00%
system.noc_network.ST.hit_latency_hist_seqr::total     12118716                      
system.noc_network.ST.latency_hist_seqr::bucket_size            1                      
system.noc_network.ST.latency_hist_seqr::max_bucket            9                      
system.noc_network.ST.latency_hist_seqr::samples     12120158                      
system.noc_network.ST.latency_hist_seqr  |    12120158    100.00%    100.00% |           0      0.00%    100.00% |           0      0.00%    100.00% |           0      0.00%    100.00% |           0      0.00%    100.00% |           0      0.00%    100.00% |           0      0.00%    100.00% |           0      0.00%    100.00% |           0      0.00%    100.00% |           0      0.00%    100.00%
system.noc_network.ST.latency_hist_seqr::total     12120158                      
system.noc_network.ST.miss_latency_hist_seqr::bucket_size            1                      
system.noc_network.ST.miss_latency_hist_seqr::max_bucket            9                      
system.noc_network.ST.miss_latency_hist_seqr::samples         1442                      
system.noc_network.ST.miss_latency_hist_seqr |        1442    100.00%    100.00% |           0      0.00%    100.00% |           0      0.00%    100.00% |           0      0.00%    100.00% |           0      0.00%    100.00% |           0      0.00%    100.00% |           0      0.00%    100.00% |           0      0.00%    100.00% |           0      0.00%    100.00% |           0      0.00%    100.00%
system.noc_network.ST.miss_latency_hist_seqr::total         1442                      
system.noc_network.delayHist::bucket_size            4                       # delay histogram for all message
system.noc_network.delayHist::max_bucket           39                       # delay histogram for all message
system.noc_network.delayHist::samples        53731420                       # delay histogram for all message
system.noc_network.delayHist::mean          14.048194                       # delay histogram for all message
system.noc_network.delayHist::gmean         12.802465                       # delay histogram for all message
system.noc_network.delayHist::stdev          6.269034                       # delay histogram for all message
system.noc_network.delayHist             |           0      0.00%      0.00% |     3939404      7.33%      7.33% |    25432762     47.33%     54.66% |     9282775     17.28%     71.94% |      614661      1.14%     73.08% |     6289584     11.71%     84.79% |     7212419     13.42%     98.21% |      823607      1.53%     99.75% |      136208      0.25%    100.00% |           0      0.00%    100.00% # delay histogram for all message
system.noc_network.delayHist::total          53731420                       # delay histogram for all message
system.noc_network.delayVCHist.vnet_1::bucket_size            4                       # delay histogram for vnet_1
system.noc_network.delayVCHist.vnet_1::max_bucket           39                       # delay histogram for vnet_1
system.noc_network.delayVCHist.vnet_1::samples     26866025                       # delay histogram for vnet_1
system.noc_network.delayVCHist.vnet_1::mean    11.719010                       # delay histogram for vnet_1
system.noc_network.delayVCHist.vnet_1::gmean    11.674242                       # delay histogram for vnet_1
system.noc_network.delayVCHist.vnet_1::stdev     1.061858                       # delay histogram for vnet_1
system.noc_network.delayVCHist.vnet_1    |           0      0.00%      0.00% |           0      0.00%      0.00% |    17630306     65.62%     65.62% |     9056852     33.71%     99.33% |      178866      0.67%    100.00% |           1      0.00%    100.00% |           0      0.00%    100.00% |           0      0.00%    100.00% |           0      0.00%    100.00% |           0      0.00%    100.00% # delay histogram for vnet_1
system.noc_network.delayVCHist.vnet_1::total     26866025                       # delay histogram for vnet_1
system.noc_network.delayVCHist.vnet_2::bucket_size            4                       # delay histogram for vnet_2
system.noc_network.delayVCHist.vnet_2::max_bucket           39                       # delay histogram for vnet_2
system.noc_network.delayVCHist.vnet_2::samples     26865395                       # delay histogram for vnet_2
system.noc_network.delayVCHist.vnet_2::mean    16.377431                       # delay histogram for vnet_2
system.noc_network.delayVCHist.vnet_2::gmean    14.039753                       # delay histogram for vnet_2
system.noc_network.delayVCHist.vnet_2::stdev     8.162374                       # delay histogram for vnet_2
system.noc_network.delayVCHist.vnet_2    |           0      0.00%      0.00% |     3939404     14.66%     14.66% |     7802456     29.04%     43.71% |      225923      0.84%     44.55% |      435795      1.62%     46.17% |     6289583     23.41%     69.58% |     7212419     26.85%     96.43% |      823607      3.07%     99.49% |      136208      0.51%    100.00% |           0      0.00%    100.00% # delay histogram for vnet_2
system.noc_network.delayVCHist.vnet_2::total     26865395                       # delay histogram for vnet_2
system.noc_network.hit_latency_hist_seqr::bucket_size            1                      
system.noc_network.hit_latency_hist_seqr::max_bucket            9                      
system.noc_network.hit_latency_hist_seqr::samples     81694087                      
system.noc_network.hit_latency_hist_seqr |    81694087    100.00%    100.00% |           0      0.00%    100.00% |           0      0.00%    100.00% |           0      0.00%    100.00% |           0      0.00%    100.00% |           0      0.00%    100.00% |           0      0.00%    100.00% |           0      0.00%    100.00% |           0      0.00%    100.00% |           0      0.00%    100.00%
system.noc_network.hit_latency_hist_seqr::total     81694087                      
system.noc_network.latency_hist_seqr::bucket_size            8                      
system.noc_network.latency_hist_seqr::max_bucket           79                      
system.noc_network.latency_hist_seqr::samples    108560112                      
system.noc_network.latency_hist_seqr::mean     0.000001                      
system.noc_network.latency_hist_seqr::stdev     0.006910                      
system.noc_network.latency_hist_seqr     |   108560111    100.00%    100.00% |           0      0.00%    100.00% |           0      0.00%    100.00% |           0      0.00%    100.00% |           0      0.00%    100.00% |           0      0.00%    100.00% |           0      0.00%    100.00% |           0      0.00%    100.00% |           0      0.00%    100.00% |           1      0.00%    100.00%
system.noc_network.latency_hist_seqr::total    108560112                      
system.noc_network.miss_latency_hist_seqr::bucket_size            8                      
[...]
system.noc_network.socket_controllers5.mem_ctrl.rdPerTurnAround::0-7           29      4.83%      4.83% # Reads before turning the bus around for writes
system.noc_network.socket_controllers5.mem_ctrl.rdPerTurnAround::8-15          139     23.13%     27.95% # Reads before turning the bus around for writes
system.noc_network.socket_controllers5.mem_ctrl.rdPerTurnAround::16-23          414     68.89%     96.84% # Reads before turning the bus around for writes
system.noc_network.socket_controllers5.mem_ctrl.rdPerTurnAround::24-31            9      1.50%     98.34% # Reads before turning the bus around for writes
system.noc_network.socket_controllers5.mem_ctrl.rdPerTurnAround::32-39            3      0.50%     98.84% # Reads before turning the bus around for writes
system.noc_network.socket_controllers5.mem_ctrl.rdPerTurnAround::40-47            2      0.33%     99.17% # Reads before turning the bus around for writes
system.noc_network.socket_controllers5.mem_ctrl.rdPerTurnAround::48-55            2      0.33%     99.50% # Reads before turning the bus around for writes
system.noc_network.socket_controllers5.mem_ctrl.rdPerTurnAround::64-71            1      0.17%     99.67% # Reads before turning the bus around for writes
system.noc_network.socket_controllers5.mem_ctrl.rdPerTurnAround::88-95            1      0.17%     99.83% # Reads before turning the bus around for writes
system.noc_network.socket_controllers5.mem_ctrl.rdPerTurnAround::296-303            1      0.17%    100.00% # Reads before turning the bus around for writes
system.noc_network.socket_controllers5.mem_ctrl.rdPerTurnAround::total          601                       # Reads before turning the bus around for writes
system.noc_network.socket_controllers5.mem_ctrl.wrPerTurnAround::samples          601                       # Writes before turning the bus around for reads
system.noc_network.socket_controllers5.mem_ctrl.wrPerTurnAround::mean    16.239601                       # Writes before turning the bus around for reads
system.noc_network.socket_controllers5.mem_ctrl.wrPerTurnAround::gmean    16.227368                       # Writes before turning the bus around for reads
system.noc_network.socket_controllers5.mem_ctrl.wrPerTurnAround::stdev     0.649997                       # Writes before turning the bus around for reads
system.noc_network.socket_controllers5.mem_ctrl.wrPerTurnAround::16          529     88.02%     88.02% # Writes before turning the bus around for reads
system.noc_network.socket_controllers5.mem_ctrl.wrPerTurnAround::18           72     11.98%    100.00% # Writes before turning the bus around for reads
system.noc_network.socket_controllers5.mem_ctrl.wrPerTurnAround::total          601                       # Writes before turning the bus around for reads
system.noc_network.socket_controllers5.mem_ctrl.bytesReadWrQ        58240                       # Total number of bytes read from write queue
system.noc_network.socket_controllers5.mem_ctrl.bytesReadSys       677888                       # Total read bytes from the system interface side
system.noc_network.socket_controllers5.mem_ctrl.bytesWrittenSys       645888                       # Total written bytes from the system interface side
system.noc_network.socket_controllers5.mem_ctrl.avgRdBWSys         1.03                       # Average system read bandwidth in MiByte/s
system.noc_network.socket_controllers5.mem_ctrl.avgWrBWSys         0.98                       # Average system write bandwidth in MiByte/s
system.noc_network.socket_controllers5.mem_ctrl.totGap 659314132000                       # Total gap between requests
system.noc_network.socket_controllers5.mem_ctrl.avgGap  31875562.37                       # Average gap between requests
system.noc_network.socket_controllers5.mem_ctrl.requestorReadBytes::.noc_network.socket_controllers5       619648                       # Per-requestor bytes read from memory
system.noc_network.socket_controllers5.mem_ctrl.requestorWriteBytes::.noc_network.socket_controllers5       624640                       # Per-requestor bytes write to memory
system.noc_network.socket_controllers5.mem_ctrl.requestorReadRate::.noc_network.socket_controllers5 939837.170928978478                       # Per-requestor bytes read from memory rate (Bytes/sec)
system.noc_network.socket_controllers5.mem_ctrl.requestorWriteRate::.noc_network.socket_controllers5 947408.674681556411                       # Per-requestor bytes write to memory rate (Bytes/sec)
system.noc_network.socket_controllers5.mem_ctrl.requestorReadAccesses::.noc_network.socket_controllers5        10592                       # Per-requestor read serviced memory accesses
system.noc_network.socket_controllers5.mem_ctrl.requestorWriteAccesses::.noc_network.socket_controllers5        10092                       # Per-requestor write serviced memory accesses
system.noc_network.socket_controllers5.mem_ctrl.requestorReadTotalLat::.noc_network.socket_controllers5    203577422                       # Per-requestor read total memory access latency
system.noc_network.socket_controllers5.mem_ctrl.requestorWriteTotalLat::.noc_network.socket_controllers5 36770465842592                       # Per-requestor write total memory access latency
system.noc_network.socket_controllers5.mem_ctrl.requestorReadAvgLat::.noc_network.socket_controllers5     19219.92                       # Per-requestor read average memory access latency
system.noc_network.socket_controllers5.mem_ctrl.requestorWriteAvgLat::.noc_network.socket_controllers5 3643526143.74                       # Per-requestor write average memory access latency
system.noc_network.socket_controllers5.mem_ctrl.nvm.bytes_read::.noc_network.socket_controllers5       677888                       # Number of bytes read from this memory
system.noc_network.socket_controllers5.mem_ctrl.nvm.bytes_read::total       677888                       # Number of bytes read from this memory
system.noc_network.socket_controllers5.mem_ctrl.nvm.bytes_written::.noc_network.socket_controllers5       645888                       # Number of bytes written to this memory
system.noc_network.socket_controllers5.mem_ctrl.nvm.bytes_written::total       645888                       # Number of bytes written to this memory
system.noc_network.socket_controllers5.mem_ctrl.nvm.num_reads::.noc_network.socket_controllers5        10592                       # Number of read requests responded to by this memory
system.noc_network.socket_controllers5.mem_ctrl.nvm.num_reads::total        10592                       # Number of read requests responded to by this memory
system.noc_network.socket_controllers5.mem_ctrl.nvm.num_writes::.noc_network.socket_controllers5        10092                       # Number of write requests responded to by this memory
system.noc_network.socket_controllers5.mem_ctrl.nvm.num_writes::total        10092                       # Number of write requests responded to by this memory
system.noc_network.socket_controllers5.mem_ctrl.nvm.bw_read::.noc_network.socket_controllers5      1028171                       # Total read bandwidth from this memory (bytes/s)
system.noc_network.socket_controllers5.mem_ctrl.nvm.bw_read::total      1028171                       # Total read bandwidth from this memory (bytes/s)
system.noc_network.socket_controllers5.mem_ctrl.nvm.bw_write::.noc_network.socket_controllers5       979636                       # Write bandwidth from this memory (bytes/s)
system.noc_network.socket_controllers5.mem_ctrl.nvm.bw_write::total       979636                       # Write bandwidth from this memory (bytes/s)
system.noc_network.socket_controllers5.mem_ctrl.nvm.bw_total::.noc_network.socket_controllers5      2007807                       # Total bandwidth to/from this memory (bytes/s)
system.noc_network.socket_controllers5.mem_ctrl.nvm.bw_total::total      2007807                       # Total bandwidth to/from this memory (bytes/s)
system.noc_network.socket_controllers5.mem_ctrl.nvm.readBursts         9682                       # Number of NVM read bursts
system.noc_network.socket_controllers5.mem_ctrl.nvm.writeBursts         9760                       # Number of NVM write bursts
system.noc_network.socket_controllers5.mem_ctrl.nvm.perBankRdBursts::0          599                       # Per bank write bursts
system.noc_network.socket_controllers5.mem_ctrl.nvm.perBankRdBursts::1          608                       # Per bank write bursts
system.noc_network.socket_controllers5.mem_ctrl.nvm.perBankRdBursts::2          578                       # Per bank write bursts
system.noc_network.socket_controllers5.mem_ctrl.nvm.perBankRdBursts::3          595                       # Per bank write bursts
system.noc_network.socket_controllers5.mem_ctrl.nvm.perBankRdBursts::4          634                       # Per bank write bursts
system.noc_network.socket_controllers5.mem_ctrl.nvm.perBankRdBursts::5          567                       # Per bank write bursts
system.noc_network.socket_controllers5.mem_ctrl.nvm.perBankRdBursts::6          612                       # Per bank write bursts
system.noc_network.socket_controllers5.mem_ctrl.nvm.perBankRdBursts::7          596                       # Per bank write bursts
system.noc_network.socket_controllers5.mem_ctrl.nvm.perBankRdBursts::8          647                       # Per bank write bursts
system.noc_network.socket_controllers5.mem_ctrl.nvm.perBankRdBursts::9          621                       # Per bank write bursts
system.noc_network.socket_controllers5.mem_ctrl.nvm.perBankRdBursts::10          590                       # Per bank write bursts
system.noc_network.socket_controllers5.mem_ctrl.nvm.perBankRdBursts::11          587                       # Per bank write bursts
system.noc_network.socket_controllers5.mem_ctrl.nvm.perBankRdBursts::12          583                       # Per bank write bursts
system.noc_network.socket_controllers5.mem_ctrl.nvm.perBankRdBursts::13          669                       # Per bank write bursts
system.noc_network.socket_controllers5.mem_ctrl.nvm.perBankRdBursts::14          581                       # Per bank write bursts
system.noc_network.socket_controllers5.mem_ctrl.nvm.perBankRdBursts::15          615                       # Per bank write bursts
system.noc_network.socket_controllers5.mem_ctrl.nvm.perBankWrBursts::0          643                       # Per bank write bursts
system.noc_network.socket_controllers5.mem_ctrl.nvm.perBankWrBursts::1          643                       # Per bank write bursts
system.noc_network.socket_controllers5.mem_ctrl.nvm.perBankWrBursts::2          580                       # Per bank write bursts
system.noc_network.socket_controllers5.mem_ctrl.nvm.perBankWrBursts::3          599                       # Per bank write bursts
system.noc_network.socket_controllers5.mem_ctrl.nvm.perBankWrBursts::4          636                       # Per bank write bursts
system.noc_network.socket_controllers5.mem_ctrl.nvm.perBankWrBursts::5          579                       # Per bank write bursts
system.noc_network.socket_controllers5.mem_ctrl.nvm.perBankWrBursts::6          601                       # Per bank write bursts
system.noc_network.socket_controllers5.mem_ctrl.nvm.perBankWrBursts::7          586                       # Per bank write bursts
system.noc_network.socket_controllers5.mem_ctrl.nvm.perBankWrBursts::8          654                       # Per bank write bursts
system.noc_network.socket_controllers5.mem_ctrl.nvm.perBankWrBursts::9          640                       # Per bank write bursts
system.noc_network.socket_controllers5.mem_ctrl.nvm.perBankWrBursts::10          583                       # Per bank write bursts
system.noc_network.socket_controllers5.mem_ctrl.nvm.perBankWrBursts::11          569                       # Per bank write bursts
system.noc_network.socket_controllers5.mem_ctrl.nvm.perBankWrBursts::12          577                       # Per bank write bursts
system.noc_network.socket_controllers5.mem_ctrl.nvm.perBankWrBursts::13          670                       # Per bank write bursts
system.noc_network.socket_controllers5.mem_ctrl.nvm.perBankWrBursts::14          573                       # Per bank write bursts
system.noc_network.socket_controllers5.mem_ctrl.nvm.perBankWrBursts::15          627                       # Per bank write bursts
system.noc_network.socket_controllers5.mem_ctrl.nvm.totQLat     34219878                       # Total ticks spent queuing
system.noc_network.socket_controllers5.mem_ctrl.nvm.totBusLat     32260424                       # Total ticks spent in databus transfers
system.noc_network.socket_controllers5.mem_ctrl.nvm.totMemAccLat    203577422                       # Total ticks spent from burst creation until serviced by the NVM
system.noc_network.socket_controllers5.mem_ctrl.nvm.avgQLat      3534.38                       # Average queueing delay per NVM burst
system.noc_network.socket_controllers5.mem_ctrl.nvm.avgBusLat      3332.00                       # Average bus latency per NVM burst
system.noc_network.socket_controllers5.mem_ctrl.nvm.avgMemAccLat     21026.38                       # Average memory access latency per NVM burst
system.noc_network.socket_controllers5.mem_ctrl.nvm.bytesRead       619648                       # Total number of bytes read from DRAM
system.noc_network.socket_controllers5.mem_ctrl.nvm.bytesWritten       624640                       # Total number of bytes written to DRAM
system.noc_network.socket_controllers5.mem_ctrl.nvm.avgRdBW         0.94                       # Average DRAM read bandwidth in MiBytes/s
system.noc_network.socket_controllers5.mem_ctrl.nvm.avgWrBW         0.95                       # Average DRAM write bandwidth in MiBytes/s
system.noc_network.socket_controllers5.mem_ctrl.nvm.peakBW     19207.00                       # Theoretical peak bandwidth in MiByte/s
system.noc_network.socket_controllers5.mem_ctrl.nvm.busUtil         0.01                       # NVM Data bus utilization in percentage
system.noc_network.socket_controllers5.mem_ctrl.nvm.busUtilRead         0.00                       # NVM Data bus read utilization in percentage
system.noc_network.socket_controllers5.mem_ctrl.nvm.busUtilWrite         0.00                       # NVM Data bus write utilization in percentage
system.noc_network.socket_controllers5.mem_ctrl.nvm.pendingReads::samples         9682                       # Reads issued to NVM for which data has not been transferred
system.noc_network.socket_controllers5.mem_ctrl.nvm.pendingReads::mean     0.000413                       # Reads issued to NVM for which data has not been transferred
system.noc_network.socket_controllers5.mem_ctrl.nvm.pendingReads::stdev     0.020323                       # Reads issued to NVM for which data has not been transferred
system.noc_network.socket_controllers5.mem_ctrl.nvm.pendingReads::0         9678     99.96%     99.96% # Reads issued to NVM for which data has not been transferred
system.noc_network.socket_controllers5.mem_ctrl.nvm.pendingReads::1            4      0.04%    100.00% # Reads issued to NVM for which data has not been transferred
system.noc_network.socket_controllers5.mem_ctrl.nvm.pendingReads::total         9682                       # Reads issued to NVM for which data has not been transferred
system.noc_network.socket_controllers5.mem_ctrl.nvm.pendingWrites::samples         9760                       # Number of outstanding writes to NVM
system.noc_network.socket_controllers5.mem_ctrl.nvm.pendingWrites::mean     5.706865                       # Number of outstanding writes to NVM
system.noc_network.socket_controllers5.mem_ctrl.nvm.pendingWrites::gmean     5.114586                       # Number of outstanding writes to NVM
system.noc_network.socket_controllers5.mem_ctrl.nvm.pendingWrites::stdev     1.982874                       # Number of outstanding writes to NVM
system.noc_network.socket_controllers5.mem_ctrl.nvm.pendingWrites::1          601      6.16%      6.16% # Number of outstanding writes to NVM
system.noc_network.socket_controllers5.mem_ctrl.nvm.pendingWrites::2          601      6.16%     12.32% # Number of outstanding writes to NVM
system.noc_network.socket_controllers5.mem_ctrl.nvm.pendingWrites::3          601      6.16%     18.47% # Number of outstanding writes to NVM
system.noc_network.socket_controllers5.mem_ctrl.nvm.pendingWrites::4          601      6.16%     24.63% # Number of outstanding writes to NVM
system.noc_network.socket_controllers5.mem_ctrl.nvm.pendingWrites::5          601      6.16%     30.79% # Number of outstanding writes to NVM
system.noc_network.socket_controllers5.mem_ctrl.nvm.pendingWrites::6          601      6.16%     36.95% # Number of outstanding writes to NVM
system.noc_network.socket_controllers5.mem_ctrl.nvm.pendingWrites::7         6154     63.05%    100.00% # Number of outstanding writes to NVM
system.noc_network.socket_controllers5.mem_ctrl.nvm.pendingWrites::total         9760                       # Number of outstanding writes to NVM
system.noc_network.socket_controllers5.mem_ctrl.nvm.bytesPerBank::samples        13202                       # Bytes read within a bank before loading new bank
system.noc_network.socket_controllers5.mem_ctrl.nvm.bytesPerBank::mean    94.220876                       # Bytes read within a bank before loading new bank
system.noc_network.socket_controllers5.mem_ctrl.nvm.bytesPerBank::gmean    83.364272                       # Bytes read within a bank before loading new bank
system.noc_network.socket_controllers5.mem_ctrl.nvm.bytesPerBank::stdev    55.970300                       # Bytes read within a bank before loading new bank
system.noc_network.socket_controllers5.mem_ctrl.nvm.bytesPerBank::64-67         9512     72.05%     72.05% # Bytes read within a bank before loading new bank
system.noc_network.socket_controllers5.mem_ctrl.nvm.bytesPerBank::128-131         1978     14.98%     87.03% # Bytes read within a bank before loading new bank
system.noc_network.socket_controllers5.mem_ctrl.nvm.bytesPerBank::192-195          897      6.79%     93.83% # Bytes read within a bank before loading new bank
system.noc_network.socket_controllers5.mem_ctrl.nvm.bytesPerBank::256-259          804      6.09%     99.92% # Bytes read within a bank before loading new bank
system.noc_network.socket_controllers5.mem_ctrl.nvm.bytesPerBank::320-323            8      0.06%     99.98% # Bytes read within a bank before loading new bank
system.noc_network.socket_controllers5.mem_ctrl.nvm.bytesPerBank::384-387            1      0.01%     99.98% # Bytes read within a bank before loading new bank
system.noc_network.socket_controllers5.mem_ctrl.nvm.bytesPerBank::448-451            1      0.01%     99.99% # Bytes read within a bank before loading new bank
system.noc_network.socket_controllers5.mem_ctrl.nvm.bytesPerBank::512-515            1      0.01%    100.00% # Bytes read within a bank before loading new bank
system.noc_network.socket_controllers5.mem_ctrl.nvm.bytesPerBank::total        13202                       # Bytes read within a bank before loading new bank
system.noc_network.socket_controllers5.mem_ctrl.nvm.power_state.pwrStateResidencyTicks::UNDEFINED 659314208000                       # Cumulative time (in ticks) in various power states
system.noc_network.socket_controllers5.mem_ctrl.power_state.pwrStateResidencyTicks::UNDEFINED 659314208000                       # Cumulative time (in ticks) in various power states
system.noc_network.socket_controllers5.power_state.pwrStateResidencyTicks::UNDEFINED 659314208000                       # Cumulative time (in ticks) in various power states
system.noc_network.sys_port_proxy.power_state.pwrStateResidencyTicks::UNDEFINED 659314208000                       # Cumulative time (in ticks) in various power states
system.voltage_domain.voltage                       1                       # Voltage in Volts

---------- End Simulation Statistics   ----------
