
---------- Begin Simulation Statistics ----------
final_tick                               146983965375000                       # Number of ticks from beginning of simulation (restored from checkpoints and never reset)
host_inst_rate                                 683033                       # Simulator instruction rate (inst/s)
host_mem_usage                                1169828                       # Number of bytes of host memory used
host_op_rate                                  1132451                       # Simulator op (including micro ops) rate (op/s)
host_seconds                                   401.50                       # Real time elapsed on the host
host_tick_rate                           366089208304                       # Simulator tick rate (ticks/s)
sim_freq                                 1000000000000                       # Frequency of simulated ticks
sim_insts                                   274236100                       # Number of instructions simulated
sim_ops                                     454676431                       # Number of ops (including micro ops) simulated
sim_seconds                                146.983965                       # Number of seconds simulated
sim_ticks                                146983965375000                       # Number of ticks simulated
system.cpu.Branches                          31200191                       # Number of branches fetched
system.cpu.committedInsts                   274236100                       # Number of instructions committed
system.cpu.committedOps                     454676431                       # Number of ops (including micro ops) committed
system.cpu.idle_fraction                     0.000000                       # Percentage of idle cycles
system.cpu.not_idle_fraction                 1.000000                       # Percentage of non-idle cycles
system.cpu.numCycles                       2351743446                       # number of cpu cycles simulated
system.cpu.numWorkItemsCompleted                    0                       # number of work items this cpu completed
system.cpu.numWorkItemsStarted                      0                       # number of work items this cpu started
system.cpu.num_busy_cycles               2351743445.999984                       # Number of busy cycles
system.cpu.num_cc_register_reads            168793216                       # number of times the CC registers were read
system.cpu.num_cc_register_writes           169619563                       # number of times the CC registers were written
system.cpu.num_conditional_control_insts     30668785                       # number of instructions that are conditional controls
system.cpu.num_fp_alu_accesses                   1142                       # Number of float alu accesses
system.cpu.num_fp_insts                          1142                       # number of float instructions
system.cpu.num_fp_register_reads                 1314                       # number of times the floating registers were read
system.cpu.num_fp_register_writes                 637                       # number of times the floating registers were written
system.cpu.num_func_calls                      455014                       # number of times a function call or return occured
system.cpu.num_idle_cycles                   0.000016                       # Number of idle cycles
system.cpu.num_int_alu_accesses             454296884                       # Number of integer alu accesses
system.cpu.num_int_insts                    454296884                       # number of integer instructions
system.cpu.num_int_register_reads           812223931                       # number of times the integer registers were read
system.cpu.num_int_register_writes          405572992                       # number of times the integer registers were written
system.cpu.num_load_insts                    94426193                       # Number of load instructions
system.cpu.num_mem_refs                     111950052                       # number of memory refs
system.cpu.num_store_insts                   17523859                       # Number of store instructions
system.cpu.num_vec_alu_accesses                     0                       # Number of vector alu accesses
system.cpu.num_vec_insts                            0                       # number of vector instructions
system.cpu.num_vec_register_reads                   0                       # number of times the vector registers were read
system.cpu.num_vec_register_writes                  0                       # number of times the vector registers were written
system.cpu.op_class::No_OpClass                227646      0.05%      0.05% # Class of executed instruction
system.cpu.op_class::IntAlu                 342498030     75.33%     75.38% # Class of executed instruction
system.cpu.op_class::IntMult                      205      0.00%     75.38% # Class of executed instruction
system.cpu.op_class::IntDiv                        21      0.00%     75.38% # Class of executed instruction
system.cpu.op_class::FloatAdd                     135      0.00%     75.38% # Class of executed instruction
system.cpu.op_class::FloatCmp                       0      0.00%     75.38% # Class of executed instruction
system.cpu.op_class::FloatCvt                       0      0.00%     75.38% # Class of executed instruction
system.cpu.op_class::FloatMult                      0      0.00%     75.38% # Class of executed instruction
system.cpu.op_class::FloatMultAcc                   0      0.00%     75.38% # Class of executed instruction
system.cpu.op_class::FloatDiv                       0      0.00%     75.38% # Class of executed instruction
system.cpu.op_class::FloatMisc                      0      0.00%     75.38% # Class of executed instruction
system.cpu.op_class::FloatSqrt                      0      0.00%     75.38% # Class of executed instruction
system.cpu.op_class::SimdAdd                        0      0.00%     75.38% # Class of executed instruction
system.cpu.op_class::SimdAddAcc                     0      0.00%     75.38% # Class of executed instruction
system.cpu.op_class::SimdAlu                       94      0.00%     75.38% # Class of executed instruction
system.cpu.op_class::SimdCmp                        0      0.00%     75.38% # Class of executed instruction
system.cpu.op_class::SimdCvt                       46      0.00%     75.38% # Class of executed instruction
system.cpu.op_class::SimdMisc                     215      0.00%     75.38% # Class of executed instruction
system.cpu.op_class::SimdMult                       0      0.00%     75.38% # Class of executed instruction
system.cpu.op_class::SimdMultAcc                    0      0.00%     75.38% # Class of executed instruction
system.cpu.op_class::SimdShift                      0      0.00%     75.38% # Class of executed instruction
system.cpu.op_class::SimdShiftAcc                   0      0.00%     75.38% # Class of executed instruction
system.cpu.op_class::SimdDiv                        0      0.00%     75.38% # Class of executed instruction
system.cpu.op_class::SimdSqrt                       0      0.00%     75.38% # Class of executed instruction
system.cpu.op_class::SimdFloatAdd                   0      0.00%     75.38% # Class of executed instruction
system.cpu.op_class::SimdFloatAlu                   0      0.00%     75.38% # Class of executed instruction
system.cpu.op_class::SimdFloatCmp                   0      0.00%     75.38% # Class of executed instruction
system.cpu.op_class::SimdFloatCvt                   0      0.00%     75.38% # Class of executed instruction
system.cpu.op_class::SimdFloatDiv                   0      0.00%     75.38% # Class of executed instruction
system.cpu.op_class::SimdFloatMisc                  0      0.00%     75.38% # Class of executed instruction
system.cpu.op_class::SimdFloatMult                  0      0.00%     75.38% # Class of executed instruction
system.cpu.op_class::SimdFloatMultAcc               0      0.00%     75.38% # Class of executed instruction
system.cpu.op_class::SimdFloatSqrt                  0      0.00%     75.38% # Class of executed instruction
system.cpu.op_class::SimdReduceAdd                  0      0.00%     75.38% # Class of executed instruction
system.cpu.op_class::SimdReduceAlu                  0      0.00%     75.38% # Class of executed instruction
system.cpu.op_class::SimdReduceCmp                  0      0.00%     75.38% # Class of executed instruction
system.cpu.op_class::SimdFloatReduceAdd             0      0.00%     75.38% # Class of executed instruction
system.cpu.op_class::SimdFloatReduceCmp             0      0.00%     75.38% # Class of executed instruction
system.cpu.op_class::SimdAes                        0      0.00%     75.38% # Class of executed instruction
system.cpu.op_class::SimdAesMix                     0      0.00%     75.38% # Class of executed instruction
system.cpu.op_class::SimdSha1Hash                   0      0.00%     75.38% # Class of executed instruction
system.cpu.op_class::SimdSha1Hash2                  0      0.00%     75.38% # Class of executed instruction
system.cpu.op_class::SimdSha256Hash                 0      0.00%     75.38% # Class of executed instruction
system.cpu.op_class::SimdSha256Hash2                0      0.00%     75.38% # Class of executed instruction
system.cpu.op_class::SimdShaSigma2                  0      0.00%     75.38% # Class of executed instruction
system.cpu.op_class::SimdShaSigma3                  0      0.00%     75.38% # Class of executed instruction
system.cpu.op_class::SimdPredAlu                    0      0.00%     75.38% # Class of executed instruction
system.cpu.op_class::MemRead                 94426139     20.77%     96.15% # Class of executed instruction
system.cpu.op_class::MemWrite                17523400      3.85%    100.00% # Class of executed instruction
system.cpu.op_class::FloatMemRead                  54      0.00%    100.00% # Class of executed instruction
system.cpu.op_class::FloatMemWrite                459      0.00%    100.00% # Class of executed instruction
system.cpu.op_class::IprAccess                      0      0.00%    100.00% # Class of executed instruction
system.cpu.op_class::InstPrefetch                   0      0.00%    100.00% # Class of executed instruction
system.cpu.op_class::total                  454676444                       # Class of executed instruction
system.cpu.workload.numSyscalls                    10                       # Number of system calls
system.l2bus.snoop_filter.hit_multi_requests            0                       # Number of requests hitting in the snoop filter with multiple (>1) holders of the requested data.
system.l2bus.snoop_filter.hit_multi_snoops            0                       # Number of snoops hitting in the snoop filter with multiple (>1) holders of the requested data.
system.l2bus.snoop_filter.hit_single_requests     49306542                       # Number of requests hitting in the snoop filter with a single holder of the requested data.
system.l2bus.snoop_filter.hit_single_snoops       925652                       # Number of snoops hitting in the snoop filter with a single holder of the requested data.
system.l2bus.snoop_filter.tot_requests       98613088                       # Total number of requests made to the snoop filter.
system.l2bus.snoop_filter.tot_snoops           925652                       # Total number of snoops made to the snoop filter.
system.membus.snoop_filter.hit_multi_requests            0                       # Number of requests hitting in the snoop filter with multiple (>1) holders of the requested data.
system.membus.snoop_filter.hit_multi_snoops            0                       # Number of snoops hitting in the snoop filter with multiple (>1) holders of the requested data.
system.membus.snoop_filter.hit_single_requests      3860666                       # Number of requests hitting in the snoop filter with a single holder of the requested data.
system.membus.snoop_filter.hit_single_snoops            0                       # Number of snoops hitting in the snoop filter with a single holder of the requested data.
system.membus.snoop_filter.tot_requests       7721340                       # Total number of requests made to the snoop filter.
system.membus.snoop_filter.tot_snoops               0                       # Total number of snoops made to the snoop filter.
system.clk_domain.clock                         62500                       # Clock period in ticks
system.clk_domain.voltage_domain.voltage            1                       # Voltage in Volts
system.cpu.dcache.demand_hits::.cpu.data     93917928                       # number of demand (read+write) hits
system.cpu.dcache.demand_hits::total         93917928                       # number of demand (read+write) hits
system.cpu.dcache.overall_hits::.cpu.data     93917928                       # number of overall hits
system.cpu.dcache.overall_hits::total        93917928                       # number of overall hits
system.cpu.dcache.demand_misses::.cpu.data     18032125                       # number of demand (read+write) misses
system.cpu.dcache.demand_misses::total       18032125                       # number of demand (read+write) misses
system.cpu.dcache.overall_misses::.cpu.data     18032125                       # number of overall misses
system.cpu.dcache.overall_misses::total      18032125                       # number of overall misses
system.cpu.dcache.demand_miss_latency::.cpu.data 35667375125000                       # number of demand (read+write) miss cycles
system.cpu.dcache.demand_miss_latency::total 35667375125000                       # number of demand (read+write) miss cycles
system.cpu.dcache.overall_miss_latency::.cpu.data 35667375125000                       # number of overall miss cycles
system.cpu.dcache.overall_miss_latency::total 35667375125000                       # number of overall miss cycles
system.cpu.dcache.demand_accesses::.cpu.data    111950053                       # number of demand (read+write) accesses
system.cpu.dcache.demand_accesses::total    111950053                       # number of demand (read+write) accesses
system.cpu.dcache.overall_accesses::.cpu.data    111950053                       # number of overall (read+write) accesses
system.cpu.dcache.overall_accesses::total    111950053                       # number of overall (read+write) accesses
system.cpu.dcache.demand_miss_rate::.cpu.data     0.161073                       # miss rate for demand accesses
system.cpu.dcache.demand_miss_rate::total     0.161073                       # miss rate for demand accesses
system.cpu.dcache.overall_miss_rate::.cpu.data     0.161073                       # miss rate for overall accesses
system.cpu.dcache.overall_miss_rate::total     0.161073                       # miss rate for overall accesses
system.cpu.dcache.demand_avg_miss_latency::.cpu.data 1977990.676362                       # average overall miss latency
system.cpu.dcache.demand_avg_miss_latency::total 1977990.676362                       # average overall miss latency
system.cpu.dcache.overall_avg_miss_latency::.cpu.data 1977990.676362                       # average overall miss latency
system.cpu.dcache.overall_avg_miss_latency::total 1977990.676362                       # average overall miss latency
system.cpu.dcache.blocked_cycles::no_mshrs            0                       # number of cycles access was blocked
system.cpu.dcache.blocked_cycles::no_targets            0                       # number of cycles access was blocked
system.cpu.dcache.blocked::no_mshrs                 0                       # number of cycles access was blocked
system.cpu.dcache.blocked::no_targets               0                       # number of cycles access was blocked
system.cpu.dcache.avg_blocked_cycles::no_mshrs          nan                       # average number of cycles each access was blocked
system.cpu.dcache.avg_blocked_cycles::no_targets          nan                       # average number of cycles each access was blocked
system.cpu.dcache.writebacks::.writebacks      2360548                       # number of writebacks
system.cpu.dcache.writebacks::total           2360548                       # number of writebacks
system.cpu.dcache.demand_mshr_misses::.cpu.data     18032125                       # number of demand (read+write) MSHR misses
system.cpu.dcache.demand_mshr_misses::total     18032125                       # number of demand (read+write) MSHR misses
system.cpu.dcache.overall_mshr_misses::.cpu.data     18032125                       # number of overall MSHR misses
system.cpu.dcache.overall_mshr_misses::total     18032125                       # number of overall MSHR misses
system.cpu.dcache.demand_mshr_miss_latency::.cpu.data 33413359500000                       # number of demand (read+write) MSHR miss cycles
system.cpu.dcache.demand_mshr_miss_latency::total 33413359500000                       # number of demand (read+write) MSHR miss cycles
system.cpu.dcache.overall_mshr_miss_latency::.cpu.data 33413359500000                       # number of overall MSHR miss cycles
system.cpu.dcache.overall_mshr_miss_latency::total 33413359500000                       # number of overall MSHR miss cycles
system.cpu.dcache.demand_mshr_miss_rate::.cpu.data     0.161073                       # mshr miss rate for demand accesses
system.cpu.dcache.demand_mshr_miss_rate::total     0.161073                       # mshr miss rate for demand accesses
system.cpu.dcache.overall_mshr_miss_rate::.cpu.data     0.161073                       # mshr miss rate for overall accesses
system.cpu.dcache.overall_mshr_miss_rate::total     0.161073                       # mshr miss rate for overall accesses
system.cpu.dcache.demand_avg_mshr_miss_latency::.cpu.data 1852990.676362                       # average overall mshr miss latency
system.cpu.dcache.demand_avg_mshr_miss_latency::total 1852990.676362                       # average overall mshr miss latency
system.cpu.dcache.overall_avg_mshr_miss_latency::.cpu.data 1852990.676362                       # average overall mshr miss latency
system.cpu.dcache.overall_avg_mshr_miss_latency::total 1852990.676362                       # average overall mshr miss latency
system.cpu.dcache.replacements               18032123                       # number of replacements
system.cpu.dcache.ReadReq_hits::.cpu.data     77464776                       # number of ReadReq hits
system.cpu.dcache.ReadReq_hits::total        77464776                       # number of ReadReq hits
system.cpu.dcache.ReadReq_misses::.cpu.data     16961419                       # number of ReadReq misses
system.cpu.dcache.ReadReq_misses::total      16961419                       # number of ReadReq misses
system.cpu.dcache.ReadReq_miss_latency::.cpu.data 32580003437500                       # number of ReadReq miss cycles
system.cpu.dcache.ReadReq_miss_latency::total 32580003437500                       # number of ReadReq miss cycles
system.cpu.dcache.ReadReq_accesses::.cpu.data     94426195                       # number of ReadReq accesses(hits+misses)
system.cpu.dcache.ReadReq_accesses::total     94426195                       # number of ReadReq accesses(hits+misses)
system.cpu.dcache.ReadReq_miss_rate::.cpu.data     0.179626                       # miss rate for ReadReq accesses
system.cpu.dcache.ReadReq_miss_rate::total     0.179626                       # miss rate for ReadReq accesses
system.cpu.dcache.ReadReq_avg_miss_latency::.cpu.data 1920830.057762                       # average ReadReq miss latency
system.cpu.dcache.ReadReq_avg_miss_latency::total 1920830.057762                       # average ReadReq miss latency
system.cpu.dcache.ReadReq_mshr_misses::.cpu.data     16961419                       # number of ReadReq MSHR misses
system.cpu.dcache.ReadReq_mshr_misses::total     16961419                       # number of ReadReq MSHR misses
system.cpu.dcache.ReadReq_mshr_miss_latency::.cpu.data 30459826062500                       # number of ReadReq MSHR miss cycles
system.cpu.dcache.ReadReq_mshr_miss_latency::total 30459826062500                       # number of ReadReq MSHR miss cycles
system.cpu.dcache.ReadReq_mshr_miss_rate::.cpu.data     0.179626                       # mshr miss rate for ReadReq accesses
system.cpu.dcache.ReadReq_mshr_miss_rate::total     0.179626                       # mshr miss rate for ReadReq accesses
system.cpu.dcache.ReadReq_avg_mshr_miss_latency::.cpu.data 1795830.057762                       # average ReadReq mshr miss latency
system.cpu.dcache.ReadReq_avg_mshr_miss_latency::total 1795830.057762                       # average ReadReq mshr miss latency
system.cpu.dcache.WriteReq_hits::.cpu.data     16453152                       # number of WriteReq hits
system.cpu.dcache.WriteReq_hits::total       16453152                       # number of WriteReq hits
system.cpu.dcache.WriteReq_misses::.cpu.data      1070706                       # number of WriteReq misses
system.cpu.dcache.WriteReq_misses::total      1070706                       # number of WriteReq misses
system.cpu.dcache.WriteReq_miss_latency::.cpu.data 3087371687500                       # number of WriteReq miss cycles
system.cpu.dcache.WriteReq_miss_latency::total 3087371687500                       # number of WriteReq miss cycles
system.cpu.dcache.WriteReq_accesses::.cpu.data     17523858                       # number of WriteReq accesses(hits+misses)
system.cpu.dcache.WriteReq_accesses::total     17523858                       # number of WriteReq accesses(hits+misses)
system.cpu.dcache.WriteReq_miss_rate::.cpu.data     0.061100                       # miss rate for WriteReq accesses
system.cpu.dcache.WriteReq_miss_rate::total     0.061100                       # miss rate for WriteReq accesses
system.cpu.dcache.WriteReq_avg_miss_latency::.cpu.data 2883491.535025                       # average WriteReq miss latency
system.cpu.dcache.WriteReq_avg_miss_latency::total 2883491.535025                       # average WriteReq miss latency
system.cpu.dcache.WriteReq_mshr_misses::.cpu.data      1070706                       # number of WriteReq MSHR misses
system.cpu.dcache.WriteReq_mshr_misses::total      1070706                       # number of WriteReq MSHR misses
system.cpu.dcache.WriteReq_mshr_miss_latency::.cpu.data 2953533437500                       # number of WriteReq MSHR miss cycles
system.cpu.dcache.WriteReq_mshr_miss_latency::total 2953533437500                       # number of WriteReq MSHR miss cycles
system.cpu.dcache.WriteReq_mshr_miss_rate::.cpu.data     0.061100                       # mshr miss rate for WriteReq accesses
system.cpu.dcache.WriteReq_mshr_miss_rate::total     0.061100                       # mshr miss rate for WriteReq accesses
system.cpu.dcache.WriteReq_avg_mshr_miss_latency::.cpu.data 2758491.535025                       # average WriteReq mshr miss latency
system.cpu.dcache.WriteReq_avg_mshr_miss_latency::total 2758491.535025                       # average WriteReq mshr miss latency
system.cpu.dcache.power_state.pwrStateResidencyTicks::UNDEFINED 146983965375000                       # Cumulative time (in ticks) in various power states
system.cpu.dcache.tags.tagsinuse             2.000000                       # Cycle average of tags in use
system.cpu.dcache.tags.total_refs           111950053                       # Total number of references to valid blocks.
system.cpu.dcache.tags.sampled_refs          18032125                       # Sample count of references to valid blocks.
system.cpu.dcache.tags.avg_refs              6.208367                       # Average number of references to valid blocks.
system.cpu.dcache.tags.warmup_cycle           7500000                       # Cycle when the warmup percentage was hit.
system.cpu.dcache.tags.occ_blocks::.cpu.data     2.000000                       # Average occupied blocks per requestor
system.cpu.dcache.tags.occ_percent::.cpu.data     1.000000                       # Average percentage of cache occupancy
system.cpu.dcache.tags.occ_percent::total     1.000000                       # Average percentage of cache occupancy
system.cpu.dcache.tags.occ_task_id_blocks::1024            2                       # Occupied blocks per task id
system.cpu.dcache.tags.age_task_id_blocks_1024::1            2                       # Occupied blocks per task id
system.cpu.dcache.tags.occ_task_id_percent::1024            1                       # Percentage of cache occupancy per task id
system.cpu.dcache.tags.tag_accesses         241932231                       # Number of tag accesses
system.cpu.dcache.tags.data_accesses        241932231                       # Number of data accesses
system.cpu.dcache.tags.power_state.pwrStateResidencyTicks::UNDEFINED 146983965375000                       # Cumulative time (in ticks) in various power states
system.cpu.dtb.rdAccesses                    94426196                       # TLB accesses on read requests
system.cpu.dtb.wrAccesses                    17523860                       # TLB accesses on write requests
system.cpu.dtb.rdMisses                            28                       # TLB misses on read requests
system.cpu.dtb.wrMisses                           453                       # TLB misses on write requests
system.cpu.dtb.walker.power_state.pwrStateResidencyTicks::UNDEFINED 146983965375000                       # Cumulative time (in ticks) in various power states
system.cpu.icache.demand_hits::.cpu.inst    367631280                       # number of demand (read+write) hits
system.cpu.icache.demand_hits::total        367631280                       # number of demand (read+write) hits
system.cpu.icache.overall_hits::.cpu.inst    367631280                       # number of overall hits
system.cpu.icache.overall_hits::total       367631280                       # number of overall hits
system.cpu.icache.demand_misses::.cpu.inst     31274421                       # number of demand (read+write) misses
system.cpu.icache.demand_misses::total       31274421                       # number of demand (read+write) misses
system.cpu.icache.overall_misses::.cpu.inst     31274421                       # number of overall misses
system.cpu.icache.overall_misses::total      31274421                       # number of overall misses
system.cpu.icache.demand_miss_latency::.cpu.inst 53622939750000                       # number of demand (read+write) miss cycles
system.cpu.icache.demand_miss_latency::total 53622939750000                       # number of demand (read+write) miss cycles
system.cpu.icache.overall_miss_latency::.cpu.inst 53622939750000                       # number of overall miss cycles
system.cpu.icache.overall_miss_latency::total 53622939750000                       # number of overall miss cycles
system.cpu.icache.demand_accesses::.cpu.inst    398905701                       # number of demand (read+write) accesses
system.cpu.icache.demand_accesses::total    398905701                       # number of demand (read+write) accesses
system.cpu.icache.overall_accesses::.cpu.inst    398905701                       # number of overall (read+write) accesses
system.cpu.icache.overall_accesses::total    398905701                       # number of overall (read+write) accesses
system.cpu.icache.demand_miss_rate::.cpu.inst     0.078401                       # miss rate for demand accesses
system.cpu.icache.demand_miss_rate::total     0.078401                       # miss rate for demand accesses
system.cpu.icache.overall_miss_rate::.cpu.inst     0.078401                       # miss rate for overall accesses
system.cpu.icache.overall_miss_rate::total     0.078401                       # miss rate for overall accesses
system.cpu.icache.demand_avg_miss_latency::.cpu.inst 1714594.164669                       # average overall miss latency
system.cpu.icache.demand_avg_miss_latency::total 1714594.164669                       # average overall miss latency
system.cpu.icache.overall_avg_miss_latency::.cpu.inst 1714594.164669                       # average overall miss latency
system.cpu.icache.overall_avg_miss_latency::total 1714594.164669                       # average overall miss latency
system.cpu.icache.blocked_cycles::no_mshrs            0                       # number of cycles access was blocked
system.cpu.icache.blocked_cycles::no_targets            0                       # number of cycles access was blocked
system.cpu.icache.blocked::no_mshrs                 0                       # number of cycles access was blocked
system.cpu.icache.blocked::no_targets               0                       # number of cycles access was blocked
system.cpu.icache.avg_blocked_cycles::no_mshrs          nan                       # average number of cycles each access was blocked
system.cpu.icache.avg_blocked_cycles::no_targets          nan                       # average number of cycles each access was blocked
system.cpu.icache.demand_mshr_misses::.cpu.inst     31274421                       # number of demand (read+write) MSHR misses
system.cpu.icache.demand_mshr_misses::total     31274421                       # number of demand (read+write) MSHR misses
system.cpu.icache.overall_mshr_misses::.cpu.inst     31274421                       # number of overall MSHR misses
system.cpu.icache.overall_mshr_misses::total     31274421                       # number of overall MSHR misses
system.cpu.icache.demand_mshr_miss_latency::.cpu.inst 49713637125000                       # number of demand (read+write) MSHR miss cycles
system.cpu.icache.demand_mshr_miss_latency::total 49713637125000                       # number of demand (read+write) MSHR miss cycles
system.cpu.icache.overall_mshr_miss_latency::.cpu.inst 49713637125000                       # number of overall MSHR miss cycles
system.cpu.icache.overall_mshr_miss_latency::total 49713637125000                       # number of overall MSHR miss cycles
system.cpu.icache.demand_mshr_miss_rate::.cpu.inst     0.078401                       # mshr miss rate for demand accesses
system.cpu.icache.demand_mshr_miss_rate::total     0.078401                       # mshr miss rate for demand accesses
system.cpu.icache.overall_mshr_miss_rate::.cpu.inst     0.078401                       # mshr miss rate for overall accesses
system.cpu.icache.overall_mshr_miss_rate::total     0.078401                       # mshr miss rate for overall accesses
system.cpu.icache.demand_avg_mshr_miss_latency::.cpu.inst 1589594.164669                       # average overall mshr miss latency
system.cpu.icache.demand_avg_mshr_miss_latency::total 1589594.164669                       # average overall mshr miss latency
system.cpu.icache.overall_avg_mshr_miss_latency::.cpu.inst 1589594.164669                       # average overall mshr miss latency
system.cpu.icache.overall_avg_mshr_miss_latency::total 1589594.164669                       # average overall mshr miss latency
system.cpu.icache.replacements               31274419                       # number of replacements
system.cpu.icache.ReadReq_hits::.cpu.inst    367631280                       # number of ReadReq hits
system.cpu.icache.ReadReq_hits::total       367631280                       # number of ReadReq hits
system.cpu.icache.ReadReq_misses::.cpu.inst     31274421                       # number of ReadReq misses
system.cpu.icache.ReadReq_misses::total      31274421                       # number of ReadReq misses
system.cpu.icache.ReadReq_miss_latency::.cpu.inst 53622939750000                       # number of ReadReq miss cycles
system.cpu.icache.ReadReq_miss_latency::total 53622939750000                       # number of ReadReq miss cycles
system.cpu.icache.ReadReq_accesses::.cpu.inst    398905701                       # number of ReadReq accesses(hits+misses)
system.cpu.icache.ReadReq_accesses::total    398905701                       # number of ReadReq accesses(hits+misses)
system.cpu.icache.ReadReq_miss_rate::.cpu.inst     0.078401                       # miss rate for ReadReq accesses
system.cpu.icache.ReadReq_miss_rate::total     0.078401                       # miss rate for ReadReq accesses
system.cpu.icache.ReadReq_avg_miss_latency::.cpu.inst 1714594.164669                       # average ReadReq miss latency
system.cpu.icache.ReadReq_avg_miss_latency::total 1714594.164669                       # average ReadReq miss latency
system.cpu.icache.ReadReq_mshr_misses::.cpu.inst     31274421                       # number of ReadReq MSHR misses
system.cpu.icache.ReadReq_mshr_misses::total     31274421                       # number of ReadReq MSHR misses
system.cpu.icache.ReadReq_mshr_miss_latency::.cpu.inst 49713637125000                       # number of ReadReq MSHR miss cycles
system.cpu.icache.ReadReq_mshr_miss_latency::total 49713637125000                       # number of ReadReq MSHR miss cycles
system.cpu.icache.ReadReq_mshr_miss_rate::.cpu.inst     0.078401                       # mshr miss rate for ReadReq accesses
system.cpu.icache.ReadReq_mshr_miss_rate::total     0.078401                       # mshr miss rate for ReadReq accesses
system.cpu.icache.ReadReq_avg_mshr_miss_latency::.cpu.inst 1589594.164669                       # average ReadReq mshr miss latency
system.cpu.icache.ReadReq_avg_mshr_miss_latency::total 1589594.164669                       # average ReadReq mshr miss latency
system.cpu.icache.power_state.pwrStateResidencyTicks::UNDEFINED 146983965375000                       # Cumulative time (in ticks) in various power states
system.cpu.icache.tags.tagsinuse             2.000000                       # Cycle average of tags in use
system.cpu.icache.tags.total_refs           398905701                       # Total number of references to valid blocks.
system.cpu.icache.tags.sampled_refs          31274421                       # Sample count of references to valid blocks.
system.cpu.icache.tags.avg_refs             12.755015                       # Average number of references to valid blocks.
system.cpu.icache.tags.warmup_cycle           3437500                       # Cycle when the warmup percentage was hit.
system.cpu.icache.tags.occ_blocks::.cpu.inst     2.000000                       # Average occupied blocks per requestor
system.cpu.icache.tags.occ_percent::.cpu.inst     1.000000                       # Average percentage of cache occupancy
system.cpu.icache.tags.occ_percent::total     1.000000                       # Average percentage of cache occupancy
system.cpu.icache.tags.occ_task_id_blocks::1024            2                       # Occupied blocks per task id
system.cpu.icache.tags.age_task_id_blocks_1024::0            2                       # Occupied blocks per task id
system.cpu.icache.tags.occ_task_id_percent::1024            1                       # Percentage of cache occupancy per task id
system.cpu.icache.tags.tag_accesses         829085823                       # Number of tag accesses
system.cpu.icache.tags.data_accesses        829085823                       # Number of data accesses
system.cpu.icache.tags.power_state.pwrStateResidencyTicks::UNDEFINED 146983965375000                       # Cumulative time (in ticks) in various power states
system.cpu.interrupts.clk_domain.clock        1000000                       # Clock period in ticks
system.cpu.itb.rdAccesses                           0                       # TLB accesses on read requests
system.cpu.itb.wrAccesses                   398905701                       # TLB accesses on write requests
system.cpu.itb.rdMisses                             0                       # TLB misses on read requests
system.cpu.itb.wrMisses                            38                       # TLB misses on write requests
system.cpu.itb.walker.power_state.pwrStateResidencyTicks::UNDEFINED 146983965375000                       # Cumulative time (in ticks) in various power states
system.cpu.power_state.pwrStateResidencyTicks::ON 146983965375000                       # Cumulative time (in ticks) in various power states
system.cpu.thread8224.numInsts                      0                       # Number of Instructions committed
system.cpu.thread8224.numOps                        0                       # Number of Ops committed
system.cpu.thread8224.numMemRefs                    0                       # Number of Memory References
system.l2bus.trans_dist::ReadResp            48235840                       # Transaction distribution
system.l2bus.trans_dist::WritebackDirty       3115030                       # Transaction distribution
system.l2bus.trans_dist::CleanEvict          50505184                       # Transaction distribution
system.l2bus.trans_dist::ReadExReq            1070706                       # Transaction distribution
system.l2bus.trans_dist::ReadExResp           1070706                       # Transaction distribution
system.l2bus.trans_dist::ReadSharedReq       48235840                       # Transaction distribution
system.l2bus.pkt_count_system.cpu.icache.mem_side_port::system.l2cache.cpu_side_port     93823261                       # Packet count per connected requestor and responder (bytes)
system.l2bus.pkt_count_system.cpu.dcache.mem_side_port::system.l2cache.cpu_side_port     54096373                       # Packet count per connected requestor and responder (bytes)
system.l2bus.pkt_count::total               147919634                       # Packet count per connected requestor and responder (bytes)
system.l2bus.pkt_size_system.cpu.icache.mem_side_port::system.l2cache.cpu_side_port   2001562944                       # Cumulative packet size per connected requestor and responder (bytes)
system.l2bus.pkt_size_system.cpu.dcache.mem_side_port::system.l2cache.cpu_side_port   1305131072                       # Cumulative packet size per connected requestor and responder (bytes)
system.l2bus.pkt_size::total               3306694016                       # Cumulative packet size per connected requestor and responder (bytes)
system.l2bus.snoops                           4313672                       # Total snoops (count)
system.l2bus.snoopTraffic                    48286848                       # Total snoop traffic (bytes)
system.l2bus.snoop_fanout::samples           53620218                       # Request fanout histogram
system.l2bus.snoop_fanout::mean              0.017263                       # Request fanout histogram
system.l2bus.snoop_fanout::stdev             0.130250                       # Request fanout histogram
system.l2bus.snoop_fanout::underflows               0      0.00%      0.00% # Request fanout histogram
system.l2bus.snoop_fanout::0                 52694566     98.27%     98.27% # Request fanout histogram
system.l2bus.snoop_fanout::1                   925652      1.73%    100.00% # Request fanout histogram
system.l2bus.snoop_fanout::2                        0      0.00%    100.00% # Request fanout histogram
system.l2bus.snoop_fanout::overflows                0      0.00%    100.00% # Request fanout histogram
system.l2bus.snoop_fanout::min_value                0                       # Request fanout histogram
system.l2bus.snoop_fanout::max_value                1                       # Request fanout histogram
system.l2bus.snoop_fanout::total             53620218                       # Request fanout histogram
system.l2bus.power_state.pwrStateResidencyTicks::UNDEFINED 146983965375000                       # Cumulative time (in ticks) in various power states
system.l2bus.reqLayer0.occupancy         6458386500000                       # Layer occupancy (ticks)
system.l2bus.reqLayer0.utilization                4.4                       # Layer utilization (%)
system.l2bus.respLayer0.occupancy        5863953937500                       # Layer occupancy (ticks)
system.l2bus.respLayer0.utilization               4.0                       # Layer utilization (%)
system.l2bus.respLayer1.occupancy        3381023437500                       # Layer occupancy (ticks)
system.l2bus.respLayer1.utilization               2.3                       # Layer utilization (%)
system.l2cache.demand_hits::.cpu.inst        29837890                       # number of demand (read+write) hits
system.l2cache.demand_hits::.cpu.data        15607982                       # number of demand (read+write) hits
system.l2cache.demand_hits::total            45445872                       # number of demand (read+write) hits
system.l2cache.overall_hits::.cpu.inst       29837890                       # number of overall hits
system.l2cache.overall_hits::.cpu.data       15607982                       # number of overall hits
system.l2cache.overall_hits::total           45445872                       # number of overall hits
system.l2cache.demand_misses::.cpu.inst       1436531                       # number of demand (read+write) misses
system.l2cache.demand_misses::.cpu.data       2424143                       # number of demand (read+write) misses
system.l2cache.demand_misses::total           3860674                       # number of demand (read+write) misses
system.l2cache.overall_misses::.cpu.inst      1436531                       # number of overall misses
system.l2cache.overall_misses::.cpu.data      2424143                       # number of overall misses
system.l2cache.overall_misses::total          3860674                       # number of overall misses
system.l2cache.demand_miss_latency::.cpu.inst 4682721687500                       # number of demand (read+write) miss cycles
system.l2cache.demand_miss_latency::.cpu.data 7939692187500                       # number of demand (read+write) miss cycles
system.l2cache.demand_miss_latency::total 12622413875000                       # number of demand (read+write) miss cycles
system.l2cache.overall_miss_latency::.cpu.inst 4682721687500                       # number of overall miss cycles
system.l2cache.overall_miss_latency::.cpu.data 7939692187500                       # number of overall miss cycles
system.l2cache.overall_miss_latency::total 12622413875000                       # number of overall miss cycles
system.l2cache.demand_accesses::.cpu.inst     31274421                       # number of demand (read+write) accesses
system.l2cache.demand_accesses::.cpu.data     18032125                       # number of demand (read+write) accesses
system.l2cache.demand_accesses::total        49306546                       # number of demand (read+write) accesses
system.l2cache.overall_accesses::.cpu.inst     31274421                       # number of overall (read+write) accesses
system.l2cache.overall_accesses::.cpu.data     18032125                       # number of overall (read+write) accesses
system.l2cache.overall_accesses::total       49306546                       # number of overall (read+write) accesses
system.l2cache.demand_miss_rate::.cpu.inst     0.045933                       # miss rate for demand accesses
system.l2cache.demand_miss_rate::.cpu.data     0.134435                       # miss rate for demand accesses
system.l2cache.demand_miss_rate::total       0.078299                       # miss rate for demand accesses
system.l2cache.overall_miss_rate::.cpu.inst     0.045933                       # miss rate for overall accesses
system.l2cache.overall_miss_rate::.cpu.data     0.134435                       # miss rate for overall accesses
system.l2cache.overall_miss_rate::total      0.078299                       # miss rate for overall accesses
system.l2cache.demand_avg_miss_latency::.cpu.inst 3259742.871891                       # average overall miss latency
system.l2cache.demand_avg_miss_latency::.cpu.data 3275257.353836                       # average overall miss latency
system.l2cache.demand_avg_miss_latency::total 3269484.518765                       # average overall miss latency
system.l2cache.overall_avg_miss_latency::.cpu.inst 3259742.871891                       # average overall miss latency
system.l2cache.overall_avg_miss_latency::.cpu.data 3275257.353836                       # average overall miss latency
system.l2cache.overall_avg_miss_latency::total 3269484.518765                       # average overall miss latency
system.l2cache.blocked_cycles::no_mshrs             0                       # number of cycles access was blocked
system.l2cache.blocked_cycles::no_targets            0                       # number of cycles access was blocked
system.l2cache.blocked::no_mshrs                    0                       # number of cycles access was blocked
system.l2cache.blocked::no_targets                  0                       # number of cycles access was blocked
system.l2cache.avg_blocked_cycles::no_mshrs          nan                       # average number of cycles each access was blocked
system.l2cache.avg_blocked_cycles::no_targets          nan                       # average number of cycles each access was blocked
system.l2cache.writebacks::.writebacks         754482                       # number of writebacks
system.l2cache.writebacks::total               754482                       # number of writebacks
system.l2cache.demand_mshr_misses::.cpu.inst      1436531                       # number of demand (read+write) MSHR misses
system.l2cache.demand_mshr_misses::.cpu.data      2424143                       # number of demand (read+write) MSHR misses
system.l2cache.demand_mshr_misses::total      3860674                       # number of demand (read+write) MSHR misses
system.l2cache.overall_mshr_misses::.cpu.inst      1436531                       # number of overall MSHR misses
system.l2cache.overall_mshr_misses::.cpu.data      2424143                       # number of overall MSHR misses
system.l2cache.overall_mshr_misses::total      3860674                       # number of overall MSHR misses
system.l2cache.demand_mshr_miss_latency::.cpu.inst 2887057937500                       # number of demand (read+write) MSHR miss cycles
system.l2cache.demand_mshr_miss_latency::.cpu.data 4909513437500                       # number of demand (read+write) MSHR miss cycles
system.l2cache.demand_mshr_miss_latency::total 7796571375000                       # number of demand (read+write) MSHR miss cycles
system.l2cache.overall_mshr_miss_latency::.cpu.inst 2887057937500                       # number of overall MSHR miss cycles
system.l2cache.overall_mshr_miss_latency::.cpu.data 4909513437500                       # number of overall MSHR miss cycles
system.l2cache.overall_mshr_miss_latency::total 7796571375000                       # number of overall MSHR miss cycles
system.l2cache.demand_mshr_miss_rate::.cpu.inst     0.045933                       # mshr miss rate for demand accesses
system.l2cache.demand_mshr_miss_rate::.cpu.data     0.134435                       # mshr miss rate for demand accesses
system.l2cache.demand_mshr_miss_rate::total     0.078299                       # mshr miss rate for demand accesses
system.l2cache.overall_mshr_miss_rate::.cpu.inst     0.045933                       # mshr miss rate for overall accesses
system.l2cache.overall_mshr_miss_rate::.cpu.data     0.134435                       # mshr miss rate for overall accesses
system.l2cache.overall_mshr_miss_rate::total     0.078299                       # mshr miss rate for overall accesses
system.l2cache.demand_avg_mshr_miss_latency::.cpu.inst 2009742.871891                       # average overall mshr miss latency
system.l2cache.demand_avg_mshr_miss_latency::.cpu.data 2025257.353836                       # average overall mshr miss latency
system.l2cache.demand_avg_mshr_miss_latency::total 2019484.518765                       # average overall mshr miss latency
system.l2cache.overall_avg_mshr_miss_latency::.cpu.inst 2009742.871891                       # average overall mshr miss latency
system.l2cache.overall_avg_mshr_miss_latency::.cpu.data 2025257.353836                       # average overall mshr miss latency
system.l2cache.overall_avg_mshr_miss_latency::total 2019484.518765                       # average overall mshr miss latency
system.l2cache.replacements                   4313672                       # number of replacements
system.l2cache.WritebackDirty_hits::.writebacks      2360548                       # number of WritebackDirty hits
system.l2cache.WritebackDirty_hits::total      2360548                       # number of WritebackDirty hits
system.l2cache.WritebackDirty_accesses::.writebacks      2360548                       # number of WritebackDirty accesses(hits+misses)
system.l2cache.WritebackDirty_accesses::total      2360548                       # number of WritebackDirty accesses(hits+misses)
system.l2cache.CleanEvict_mshr_misses::.writebacks       472646                       # number of CleanEvict MSHR misses
system.l2cache.CleanEvict_mshr_misses::total       472646                       # number of CleanEvict MSHR misses
system.l2cache.CleanEvict_mshr_miss_rate::.writebacks          inf                       # mshr miss rate for CleanEvict accesses
system.l2cache.CleanEvict_mshr_miss_rate::total          inf                       # mshr miss rate for CleanEvict accesses
system.l2cache.ReadExReq_hits::.cpu.data       618332                       # number of ReadExReq hits
system.l2cache.ReadExReq_hits::total           618332                       # number of ReadExReq hits
system.l2cache.ReadExReq_misses::.cpu.data       452374                       # number of ReadExReq misses
system.l2cache.ReadExReq_misses::total         452374                       # number of ReadExReq misses
system.l2cache.ReadExReq_miss_latency::.cpu.data 1470220062500                       # number of ReadExReq miss cycles
system.l2cache.ReadExReq_miss_latency::total 1470220062500                       # number of ReadExReq miss cycles
system.l2cache.ReadExReq_accesses::.cpu.data      1070706                       # number of ReadExReq accesses(hits+misses)
system.l2cache.ReadExReq_accesses::total      1070706                       # number of ReadExReq accesses(hits+misses)
system.l2cache.ReadExReq_miss_rate::.cpu.data     0.422501                       # miss rate for ReadExReq accesses
system.l2cache.ReadExReq_miss_rate::total     0.422501                       # miss rate for ReadExReq accesses
system.l2cache.ReadExReq_avg_miss_latency::.cpu.data 3250010.085681                       # average ReadExReq miss latency
system.l2cache.ReadExReq_avg_miss_latency::total 3250010.085681                       # average ReadExReq miss latency
system.l2cache.ReadExReq_mshr_misses::.cpu.data       452374                       # number of ReadExReq MSHR misses
system.l2cache.ReadExReq_mshr_misses::total       452374                       # number of ReadExReq MSHR misses
system.l2cache.ReadExReq_mshr_miss_latency::.cpu.data 904752562500                       # number of ReadExReq MSHR miss cycles
system.l2cache.ReadExReq_mshr_miss_latency::total 904752562500                       # number of ReadExReq MSHR miss cycles
system.l2cache.ReadExReq_mshr_miss_rate::.cpu.data     0.422501                       # mshr miss rate for ReadExReq accesses
system.l2cache.ReadExReq_mshr_miss_rate::total     0.422501                       # mshr miss rate for ReadExReq accesses
system.l2cache.ReadExReq_avg_mshr_miss_latency::.cpu.data 2000010.085681                       # average ReadExReq mshr miss latency
system.l2cache.ReadExReq_avg_mshr_miss_latency::total 2000010.085681                       # average ReadExReq mshr miss latency
system.l2cache.ReadSharedReq_hits::.cpu.inst     29837890                       # number of ReadSharedReq hits
system.l2cache.ReadSharedReq_hits::.cpu.data     14989650                       # number of ReadSharedReq hits
system.l2cache.ReadSharedReq_hits::total     44827540                       # number of ReadSharedReq hits
system.l2cache.ReadSharedReq_misses::.cpu.inst      1436531                       # number of ReadSharedReq misses
system.l2cache.ReadSharedReq_misses::.cpu.data      1971769                       # number of ReadSharedReq misses
system.l2cache.ReadSharedReq_misses::total      3408300                       # number of ReadSharedReq misses
system.l2cache.ReadSharedReq_miss_latency::.cpu.inst 4682721687500                       # number of ReadSharedReq miss cycles
system.l2cache.ReadSharedReq_miss_latency::.cpu.data 6469472125000                       # number of ReadSharedReq miss cycles
system.l2cache.ReadSharedReq_miss_latency::total 11152193812500                       # number of ReadSharedReq miss cycles
system.l2cache.ReadSharedReq_accesses::.cpu.inst     31274421                       # number of ReadSharedReq accesses(hits+misses)
system.l2cache.ReadSharedReq_accesses::.cpu.data     16961419                       # number of ReadSharedReq accesses(hits+misses)
system.l2cache.ReadSharedReq_accesses::total     48235840                       # number of ReadSharedReq accesses(hits+misses)
system.l2cache.ReadSharedReq_miss_rate::.cpu.inst     0.045933                       # miss rate for ReadSharedReq accesses
system.l2cache.ReadSharedReq_miss_rate::.cpu.data     0.116250                       # miss rate for ReadSharedReq accesses
system.l2cache.ReadSharedReq_miss_rate::total     0.070659                       # miss rate for ReadSharedReq accesses
system.l2cache.ReadSharedReq_avg_miss_latency::.cpu.inst 3259742.871891                       # average ReadSharedReq miss latency
system.l2cache.ReadSharedReq_avg_miss_latency::.cpu.data 3281049.719820                       # average ReadSharedReq miss latency
system.l2cache.ReadSharedReq_avg_miss_latency::total 3272069.305079                       # average ReadSharedReq miss latency
system.l2cache.ReadSharedReq_mshr_misses::.cpu.inst      1436531                       # number of ReadSharedReq MSHR misses
system.l2cache.ReadSharedReq_mshr_misses::.cpu.data      1971769                       # number of ReadSharedReq MSHR misses
system.l2cache.ReadSharedReq_mshr_misses::total      3408300                       # number of ReadSharedReq MSHR misses
system.l2cache.ReadSharedReq_mshr_miss_latency::.cpu.inst 2887057937500                       # number of ReadSharedReq MSHR miss cycles
system.l2cache.ReadSharedReq_mshr_miss_latency::.cpu.data 4004760875000                       # number of ReadSharedReq MSHR miss cycles
system.l2cache.ReadSharedReq_mshr_miss_latency::total 6891818812500                       # number of ReadSharedReq MSHR miss cycles
system.l2cache.ReadSharedReq_mshr_miss_rate::.cpu.inst     0.045933                       # mshr miss rate for ReadSharedReq accesses
system.l2cache.ReadSharedReq_mshr_miss_rate::.cpu.data     0.116250                       # mshr miss rate for ReadSharedReq accesses
system.l2cache.ReadSharedReq_mshr_miss_rate::total     0.070659                       # mshr miss rate for ReadSharedReq accesses
system.l2cache.ReadSharedReq_avg_mshr_miss_latency::.cpu.inst 2009742.871891                       # average ReadSharedReq mshr miss latency
system.l2cache.ReadSharedReq_avg_mshr_miss_latency::.cpu.data 2031049.719820                       # average ReadSharedReq mshr miss latency
system.l2cache.ReadSharedReq_avg_mshr_miss_latency::total 2022069.305079                       # average ReadSharedReq mshr miss latency
system.l2cache.power_state.pwrStateResidencyTicks::UNDEFINED 146983965375000                       # Cumulative time (in ticks) in various power states
system.l2cache.tags.tagsinuse                7.999999                       # Cycle average of tags in use
system.l2cache.tags.total_refs               98140442                       # Total number of references to valid blocks.
system.l2cache.tags.sampled_refs              4313680                       # Sample count of references to valid blocks.
system.l2cache.tags.avg_refs                22.750979                       # Average number of references to valid blocks.
system.l2cache.tags.warmup_cycle              2125000                       # Cycle when the warmup percentage was hit.
system.l2cache.tags.occ_blocks::.writebacks     0.258547                       # Average occupied blocks per requestor
system.l2cache.tags.occ_blocks::.cpu.inst     4.000395                       # Average occupied blocks per requestor
system.l2cache.tags.occ_blocks::.cpu.data     3.741057                       # Average occupied blocks per requestor
system.l2cache.tags.occ_percent::.writebacks     0.032318                       # Average percentage of cache occupancy
system.l2cache.tags.occ_percent::.cpu.inst     0.500049                       # Average percentage of cache occupancy
system.l2cache.tags.occ_percent::.cpu.data     0.467632                       # Average percentage of cache occupancy
system.l2cache.tags.occ_percent::total       1.000000                       # Average percentage of cache occupancy
system.l2cache.tags.occ_task_id_blocks::1024            8                       # Occupied blocks per task id
system.l2cache.tags.age_task_id_blocks_1024::0            2                       # Occupied blocks per task id
system.l2cache.tags.age_task_id_blocks_1024::1            6                       # Occupied blocks per task id
system.l2cache.tags.occ_task_id_percent::1024            1                       # Percentage of cache occupancy per task id
system.l2cache.tags.tag_accesses            793218384                       # Number of tag accesses
system.l2cache.tags.data_accesses           793218384                       # Number of data accesses
system.l2cache.tags.power_state.pwrStateResidencyTicks::UNDEFINED 146983965375000                       # Cumulative time (in ticks) in various power states
system.mem_ctrl.avgPriority_.writebacks::samples     39434.00                       # Average QoS priority value for accepted requests
system.mem_ctrl.avgPriority_.cpu.inst::samples   1436531.00                       # Average QoS priority value for accepted requests
system.mem_ctrl.avgPriority_.cpu.data::samples    190426.00                       # Average QoS priority value for accepted requests
system.mem_ctrl.priorityMinLatency       0.000000017492                       # per QoS priority minimum request to response latency (s)
system.mem_ctrl.priorityMaxLatency       1.205570517492                       # per QoS priority maximum request to response latency (s)
system.mem_ctrl.numReadWriteTurnArounds          2188                       # Number of turnarounds from READ to WRITE
system.mem_ctrl.numWriteReadTurnArounds          2188                       # Number of turnarounds from WRITE to READ
system.mem_ctrl.numStayReadState              5648386                       # Number of times bus staying in READ state
system.mem_ctrl.numStayWriteState               37196                       # Number of times bus staying in WRITE state
system.mem_ctrl.readReqs                      3260480                       # Number of read requests accepted
system.mem_ctrl.writeReqs                      754387                       # Number of write requests accepted
system.mem_ctrl.readBursts                    3260480                       # Number of controller read bursts, including those serviced by the write queue
system.mem_ctrl.writeBursts                    754387                       # Number of controller write bursts, including those merged in the write queue
system.mem_ctrl.servicedByWrQ                 1633523                       # Number of controller read bursts serviced by the write queue
system.mem_ctrl.mergedWrBursts                 714953                       # Number of controller write bursts merged with an existing one
system.mem_ctrl.neitherReadNorWriteReqs             0                       # Number of requests that are neither read nor write
system.mem_ctrl.avgRdQLen                        1.00                       # Average read queue length when enqueuing
system.mem_ctrl.avgWrQLen                       57.13                       # Average write queue length when enqueuing
system.mem_ctrl.numRdRetry                          0                       # Number of times read queue was full causing retry
system.mem_ctrl.numWrRetry                          0                       # Number of times write queue was full causing retry
system.mem_ctrl.readPktSize::0                      0                       # Read request sizes (log2)
system.mem_ctrl.readPktSize::1                      0                       # Read request sizes (log2)
system.mem_ctrl.readPktSize::2                      0                       # Read request sizes (log2)
system.mem_ctrl.readPktSize::3                      0                       # Read request sizes (log2)
system.mem_ctrl.readPktSize::4                      0                       # Read request sizes (log2)
system.mem_ctrl.readPktSize::5                      0                       # Read request sizes (log2)
system.mem_ctrl.readPktSize::6                3260480                       # Read request sizes (log2)
system.mem_ctrl.writePktSize::0                     0                       # Write request sizes (log2)
system.mem_ctrl.writePktSize::1                     0                       # Write request sizes (log2)
system.mem_ctrl.writePktSize::2                     0                       # Write request sizes (log2)
system.mem_ctrl.writePktSize::3                     0                       # Write request sizes (log2)
system.mem_ctrl.writePktSize::4                     0                       # Write request sizes (log2)
system.mem_ctrl.writePktSize::5                     0                       # Write request sizes (log2)
system.mem_ctrl.writePktSize::6                754387                       # Write request sizes (log2)
system.mem_ctrl.rdQLenPdf::0                  1626957                       # What read queue length does an incoming req see
system.mem_ctrl.rdQLenPdf::1                        0                       # What read queue length does an incoming req see
system.mem_ctrl.rdQLenPdf::2                        0                       # What read queue length does an incoming req see
system.mem_ctrl.rdQLenPdf::3                        0                       # What read queue length does an incoming req see
system.mem_ctrl.rdQLenPdf::4                        0                       # What read queue length does an incoming req see
system.mem_ctrl.rdQLenPdf::5                        0                       # What read queue length does an incoming req see
system.mem_ctrl.rdQLenPdf::6                        0                       # What read queue length does an incoming req see
system.mem_ctrl.rdQLenPdf::7                        0                       # What read queue length does an incoming req see
system.mem_ctrl.rdQLenPdf::8                        0                       # What read queue length does an incoming req see
system.mem_ctrl.rdQLenPdf::9                        0                       # What read queue length does an incoming req see
system.mem_ctrl.rdQLenPdf::10                       0                       # What read queue length does an incoming req see
system.mem_ctrl.rdQLenPdf::11                       0                       # What read queue length does an incoming req see
system.mem_ctrl.rdQLenPdf::12                       0                       # What read queue length does an incoming req see
system.mem_ctrl.rdQLenPdf::13                       0                       # What read queue length does an incoming req see
system.mem_ctrl.rdQLenPdf::14                       0                       # What read queue length does an incoming req see
system.mem_ctrl.rdQLenPdf::15                       0                       # What read queue length does an incoming req see
system.mem_ctrl.rdQLenPdf::16                       0                       # What read queue length does an incoming req see
system.mem_ctrl.rdQLenPdf::17                       0                       # What read queue length does an incoming req see
system.mem_ctrl.rdQLenPdf::18                       0                       # What read queue length does an incoming req see
system.mem_ctrl.rdQLenPdf::19                       0                       # What read queue length does an incoming req see
system.mem_ctrl.rdQLenPdf::20                       0                       # What read queue length does an incoming req see
system.mem_ctrl.rdQLenPdf::21                       0                       # What read queue length does an incoming req see
system.mem_ctrl.rdQLenPdf::22                       0                       # What read queue length does an incoming req see
system.mem_ctrl.rdQLenPdf::23                       0                       # What read queue length does an incoming req see
system.mem_ctrl.rdQLenPdf::24                       0                       # What read queue length does an incoming req see
system.mem_ctrl.rdQLenPdf::25                       0                       # What read queue length does an incoming req see
system.mem_ctrl.rdQLenPdf::26                       0                       # What read queue length does an incoming req see
system.mem_ctrl.rdQLenPdf::27                       0                       # What read queue length does an incoming req see
system.mem_ctrl.rdQLenPdf::28                       0                       # What read queue length does an incoming req see
system.mem_ctrl.rdQLenPdf::29                       0                       # What read queue length does an incoming req see
system.mem_ctrl.rdQLenPdf::30                       0                       # What read queue length does an incoming req see
system.mem_ctrl.rdQLenPdf::31                       0                       # What read queue length does an incoming req see
system.mem_ctrl.rdQLenPdf::32                       0                       # What read queue length does an incoming req see
system.mem_ctrl.rdQLenPdf::33                       0                       # What read queue length does an incoming req see
system.mem_ctrl.rdQLenPdf::34                       0                       # What read queue length does an incoming req see
system.mem_ctrl.rdQLenPdf::35                       0                       # What read queue length does an incoming req see
system.mem_ctrl.rdQLenPdf::36                       0                       # What read queue length does an incoming req see
system.mem_ctrl.rdQLenPdf::37                       0                       # What read queue length does an incoming req see
system.mem_ctrl.rdQLenPdf::38                       0                       # What read queue length does an incoming req see
system.mem_ctrl.rdQLenPdf::39                       0                       # What read queue length does an incoming req see
system.mem_ctrl.rdQLenPdf::40                       0                       # What read queue length does an incoming req see
system.mem_ctrl.rdQLenPdf::41                       0                       # What read queue length does an incoming req see
system.mem_ctrl.rdQLenPdf::42                       0                       # What read queue length does an incoming req see
system.mem_ctrl.rdQLenPdf::43                       0                       # What read queue length does an incoming req see
system.mem_ctrl.rdQLenPdf::44                       0                       # What read queue length does an incoming req see
system.mem_ctrl.rdQLenPdf::45                       0                       # What read queue length does an incoming req see
system.mem_ctrl.rdQLenPdf::46                       0                       # What read queue length does an incoming req see
system.mem_ctrl.rdQLenPdf::47                       0                       # What read queue length does an incoming req see
system.mem_ctrl.rdQLenPdf::48                       0                       # What read queue length does an incoming req see
system.mem_ctrl.rdQLenPdf::49                       0                       # What read queue length does an incoming req see
system.mem_ctrl.rdQLenPdf::50                       0                       # What read queue length does an incoming req see
system.mem_ctrl.rdQLenPdf::51                       0                       # What read queue length does an incoming req see
system.mem_ctrl.rdQLenPdf::52                       0                       # What read queue length does an incoming req see
system.mem_ctrl.rdQLenPdf::53                       0                       # What read queue length does an incoming req see
system.mem_ctrl.rdQLenPdf::54                       0                       # What read queue length does an incoming req see
system.mem_ctrl.rdQLenPdf::55                       0                       # What read queue length does an incoming req see
system.mem_ctrl.rdQLenPdf::56                       0                       # What read queue length does an incoming req see
system.mem_ctrl.rdQLenPdf::57                       0                       # What read queue length does an incoming req see
system.mem_ctrl.rdQLenPdf::58                       0                       # What read queue length does an incoming req see
system.mem_ctrl.rdQLenPdf::59                       0                       # What read queue length does an incoming req see
system.mem_ctrl.rdQLenPdf::60                       0                       # What read queue length does an incoming req see
system.mem_ctrl.rdQLenPdf::61                       0                       # What read queue length does an incoming req see
system.mem_ctrl.rdQLenPdf::62                       0                       # What read queue length does an incoming req see
system.mem_ctrl.rdQLenPdf::63                       0                       # What read queue length does an incoming req see
system.mem_ctrl.wrQLenPdf::0                        1                       # What write queue length does an incoming req see
system.mem_ctrl.wrQLenPdf::1                        1                       # What write queue length does an incoming req see
system.mem_ctrl.wrQLenPdf::2                        1                       # What write queue length does an incoming req see
system.mem_ctrl.wrQLenPdf::3                        1                       # What write queue length does an incoming req see
system.mem_ctrl.wrQLenPdf::4                        1                       # What write queue length does an incoming req see
system.mem_ctrl.wrQLenPdf::5                        1                       # What write queue length does an incoming req see
system.mem_ctrl.wrQLenPdf::6                        1                       # What write queue length does an incoming req see
system.mem_ctrl.wrQLenPdf::7                        1                       # What write queue length does an incoming req see
system.mem_ctrl.wrQLenPdf::8                        1                       # What write queue length does an incoming req see
system.mem_ctrl.wrQLenPdf::9                        1                       # What write queue length does an incoming req see
system.mem_ctrl.wrQLenPdf::10                       1                       # What write queue length does an incoming req see
system.mem_ctrl.wrQLenPdf::11                       1                       # What write queue length does an incoming req see
system.mem_ctrl.wrQLenPdf::12                       1                       # What write queue length does an incoming req see
system.mem_ctrl.wrQLenPdf::13                       1                       # What write queue length does an incoming req see
system.mem_ctrl.wrQLenPdf::14                       1                       # What write queue length does an incoming req see
system.mem_ctrl.wrQLenPdf::15                       1                       # What write queue length does an incoming req see
system.mem_ctrl.wrQLenPdf::16                       1                       # What write queue length does an incoming req see
system.mem_ctrl.wrQLenPdf::17                       1                       # What write queue length does an incoming req see
system.mem_ctrl.wrQLenPdf::18                       1                       # What write queue length does an incoming req see
system.mem_ctrl.wrQLenPdf::19                       1                       # What write queue length does an incoming req see
system.mem_ctrl.wrQLenPdf::20                       1                       # What write queue length does an incoming req see
system.mem_ctrl.wrQLenPdf::21                       1                       # What write queue length does an incoming req see
system.mem_ctrl.wrQLenPdf::22                       1                       # What write queue length does an incoming req see
system.mem_ctrl.wrQLenPdf::23                       1                       # What write queue length does an incoming req see
system.mem_ctrl.wrQLenPdf::24                       1                       # What write queue length does an incoming req see
system.mem_ctrl.wrQLenPdf::25                       1                       # What write queue length does an incoming req see
system.mem_ctrl.wrQLenPdf::26                       1                       # What write queue length does an incoming req see
system.mem_ctrl.wrQLenPdf::27                       1                       # What write queue length does an incoming req see
system.mem_ctrl.wrQLenPdf::28                       1                       # What write queue length does an incoming req see
system.mem_ctrl.wrQLenPdf::29                       1                       # What write queue length does an incoming req see
system.mem_ctrl.wrQLenPdf::30                       1                       # What write queue length does an incoming req see
system.mem_ctrl.wrQLenPdf::31                       1                       # What write queue length does an incoming req see
system.mem_ctrl.wrQLenPdf::32                       1                       # What write queue length does an incoming req see
system.mem_ctrl.wrQLenPdf::33                       1                       # What write queue length does an incoming req see
system.mem_ctrl.wrQLenPdf::34                       1                       # What write queue length does an incoming req see
system.mem_ctrl.wrQLenPdf::35                       1                       # What write queue length does an incoming req see
system.mem_ctrl.wrQLenPdf::36                       1                       # What write queue length does an incoming req see
system.mem_ctrl.wrQLenPdf::37                       1                       # What write queue length does an incoming req see
system.mem_ctrl.wrQLenPdf::38                       1                       # What write queue length does an incoming req see
system.mem_ctrl.wrQLenPdf::39                       1                       # What write queue length does an incoming req see
system.mem_ctrl.wrQLenPdf::40                       1                       # What write queue length does an incoming req see
system.mem_ctrl.wrQLenPdf::41                       1                       # What write queue length does an incoming req see
system.mem_ctrl.wrQLenPdf::42                       1                       # What write queue length does an incoming req see
system.mem_ctrl.wrQLenPdf::43                       1                       # What write queue length does an incoming req see
system.mem_ctrl.wrQLenPdf::44                       1                       # What write queue length does an incoming req see
system.mem_ctrl.wrQLenPdf::45                       1                       # What write queue length does an incoming req see
system.mem_ctrl.wrQLenPdf::46                       1                       # What write queue length does an incoming req see
system.mem_ctrl.wrQLenPdf::47                    2189                       # What write queue length does an incoming req see
system.mem_ctrl.wrQLenPdf::48                    2189                       # What write queue length does an incoming req see
system.mem_ctrl.wrQLenPdf::49                    2189                       # What write queue length does an incoming req see
system.mem_ctrl.wrQLenPdf::50                    2188                       # What write queue length does an incoming req see
system.mem_ctrl.wrQLenPdf::51                    2188                       # What write queue length does an incoming req see
system.mem_ctrl.wrQLenPdf::52                    2188                       # What write queue length does an incoming req see
system.mem_ctrl.wrQLenPdf::53                    2188                       # What write queue length does an incoming req see
system.mem_ctrl.wrQLenPdf::54                    2188                       # What write queue length does an incoming req see
system.mem_ctrl.wrQLenPdf::55                    2188                       # What write queue length does an incoming req see
system.mem_ctrl.wrQLenPdf::56                    2188                       # What write queue length does an incoming req see
system.mem_ctrl.wrQLenPdf::57                    2188                       # What write queue length does an incoming req see
system.mem_ctrl.wrQLenPdf::58                    2188                       # What write queue length does an incoming req see
system.mem_ctrl.wrQLenPdf::59                    2188                       # What write queue length does an incoming req see
system.mem_ctrl.wrQLenPdf::60                    2188                       # What write queue length does an incoming req see
system.mem_ctrl.wrQLenPdf::61                    2188                       # What write queue length does an incoming req see
system.mem_ctrl.wrQLenPdf::62                    2188                       # What write queue length does an incoming req see
system.mem_ctrl.wrQLenPdf::63                    2188                       # What write queue length does an incoming req see
system.mem_ctrl.wrQLenPdf::64                    2188                       # What write queue length does an incoming req see
system.mem_ctrl.wrQLenPdf::65                       0                       # What write queue length does an incoming req see
system.mem_ctrl.wrQLenPdf::66                       0                       # What write queue length does an incoming req see
system.mem_ctrl.wrQLenPdf::67                       0                       # What write queue length does an incoming req see
system.mem_ctrl.wrQLenPdf::68                       0                       # What write queue length does an incoming req see
system.mem_ctrl.wrQLenPdf::69                       0                       # What write queue length does an incoming req see
system.mem_ctrl.wrQLenPdf::70                       0                       # What write queue length does an incoming req see
system.mem_ctrl.wrQLenPdf::71                       0                       # What write queue length does an incoming req see
system.mem_ctrl.wrQLenPdf::72                       0                       # What write queue length does an incoming req see
system.mem_ctrl.wrQLenPdf::73                       0                       # What write queue length does an incoming req see
system.mem_ctrl.wrQLenPdf::74                       0                       # What write queue length does an incoming req see
system.mem_ctrl.wrQLenPdf::75                       0                       # What write queue length does an incoming req see
system.mem_ctrl.wrQLenPdf::76                       0                       # What write queue length does an incoming req see
system.mem_ctrl.wrQLenPdf::77                       0                       # What write queue length does an incoming req see
[...]
system.nvm_ctrl.wrQLenPdf::110                      0                       # What write queue length does an incoming req see
system.nvm_ctrl.wrQLenPdf::111                      0                       # What write queue length does an incoming req see
system.nvm_ctrl.wrQLenPdf::112                      0                       # What write queue length does an incoming req see
system.nvm_ctrl.wrQLenPdf::113                      0                       # What write queue length does an incoming req see
system.nvm_ctrl.wrQLenPdf::114                      0                       # What write queue length does an incoming req see
system.nvm_ctrl.wrQLenPdf::115                      0                       # What write queue length does an incoming req see
system.nvm_ctrl.wrQLenPdf::116                      0                       # What write queue length does an incoming req see
system.nvm_ctrl.wrQLenPdf::117                      0                       # What write queue length does an incoming req see
system.nvm_ctrl.wrQLenPdf::118                      0                       # What write queue length does an incoming req see
system.nvm_ctrl.wrQLenPdf::119                      0                       # What write queue length does an incoming req see
system.nvm_ctrl.wrQLenPdf::120                      0                       # What write queue length does an incoming req see
system.nvm_ctrl.wrQLenPdf::121                      0                       # What write queue length does an incoming req see
system.nvm_ctrl.wrQLenPdf::122                      0                       # What write queue length does an incoming req see
system.nvm_ctrl.wrQLenPdf::123                      0                       # What write queue length does an incoming req see
system.nvm_ctrl.wrQLenPdf::124                      0                       # What write queue length does an incoming req see
system.nvm_ctrl.wrQLenPdf::125                      0                       # What write queue length does an incoming req see
system.nvm_ctrl.wrQLenPdf::126                      0                       # What write queue length does an incoming req see
system.nvm_ctrl.wrQLenPdf::127                      0                       # What write queue length does an incoming req see
system.nvm_ctrl.bytesReadWrQ                     8192                       # Total number of bytes read from write queue
system.nvm_ctrl.bytesReadSys                 38412416                       # Total read bytes from the system interface side
system.nvm_ctrl.bytesWrittenSys                  6080                       # Total written bytes from the system interface side
system.nvm_ctrl.avgRdBWSys                       0.26                       # Average system read bandwidth in MiByte/s
system.nvm_ctrl.avgWrBWSys                       0.00                       # Average system write bandwidth in MiByte/s
system.nvm_ctrl.totGap                   146982407062500                       # Total gap between requests
system.nvm_ctrl.avgGap                   244852741.03                       # Average gap between requests
system.nvm_ctrl.requestorReadBytes::.cpu.data     38404224                       # Per-requestor bytes read from memory
system.nvm_ctrl.requestorReadRate::.cpu.data 261281.724860391085                       # Per-requestor bytes read from memory rate (Bytes/sec)
system.nvm_ctrl.requestorReadAccesses::.cpu.data       600194                       # Per-requestor read serviced memory accesses
system.nvm_ctrl.requestorWriteAccesses::.writebacks           95                       # Per-requestor write serviced memory accesses
system.nvm_ctrl.requestorReadTotalLat::.cpu.data  73193186472                       # Per-requestor read total memory access latency
system.nvm_ctrl.requestorReadAvgLat::.cpu.data    121949.21                       # Per-requestor read average memory access latency
system.nvm_ctrl.requestorWriteAvgLat::.writebacks         0.00                       # Per-requestor write average memory access latency
system.nvm_ctrl.nvm.bytes_read::.cpu.data     38412416                       # Number of bytes read from this memory
system.nvm_ctrl.nvm.bytes_read::total        38412416                       # Number of bytes read from this memory
system.nvm_ctrl.nvm.bytes_written::.writebacks         6080                       # Number of bytes written to this memory
system.nvm_ctrl.nvm.bytes_written::total         6080                       # Number of bytes written to this memory
system.nvm_ctrl.nvm.num_reads::.cpu.data       600194                       # Number of read requests responded to by this memory
system.nvm_ctrl.nvm.num_reads::total           600194                       # Number of read requests responded to by this memory
system.nvm_ctrl.nvm.num_writes::.writebacks           95                       # Number of write requests responded to by this memory
system.nvm_ctrl.nvm.num_writes::total              95                       # Number of write requests responded to by this memory
system.nvm_ctrl.nvm.bw_read::.cpu.data         261337                       # Total read bandwidth from this memory (bytes/s)
system.nvm_ctrl.nvm.bw_read::total             261337                       # Total read bandwidth from this memory (bytes/s)
system.nvm_ctrl.nvm.bw_write::.writebacks           41                       # Write bandwidth from this memory (bytes/s)
system.nvm_ctrl.nvm.bw_write::total                41                       # Write bandwidth from this memory (bytes/s)
system.nvm_ctrl.nvm.bw_total::.writebacks           41                       # Total bandwidth to/from this memory (bytes/s)
system.nvm_ctrl.nvm.bw_total::.cpu.data        261337                       # Total bandwidth to/from this memory (bytes/s)
system.nvm_ctrl.nvm.bw_total::total            261379                       # Total bandwidth to/from this memory (bytes/s)
system.nvm_ctrl.nvm.readBursts                 600066                       # Number of NVM read bursts
system.nvm_ctrl.nvm.writeBursts                     0                       # Number of NVM write bursts
system.nvm_ctrl.nvm.perBankRdBursts::0          39037                       # Per bank write bursts
system.nvm_ctrl.nvm.perBankRdBursts::1          38485                       # Per bank write bursts
system.nvm_ctrl.nvm.perBankRdBursts::2          39474                       # Per bank write bursts
system.nvm_ctrl.nvm.perBankRdBursts::3          38779                       # Per bank write bursts
system.nvm_ctrl.nvm.perBankRdBursts::4          39584                       # Per bank write bursts
system.nvm_ctrl.nvm.perBankRdBursts::5          38963                       # Per bank write bursts
system.nvm_ctrl.nvm.perBankRdBursts::6          38349                       # Per bank write bursts
system.nvm_ctrl.nvm.perBankRdBursts::7          40067                       # Per bank write bursts
system.nvm_ctrl.nvm.perBankRdBursts::8          36474                       # Per bank write bursts
system.nvm_ctrl.nvm.perBankRdBursts::9          38031                       # Per bank write bursts
system.nvm_ctrl.nvm.perBankRdBursts::10         38131                       # Per bank write bursts
system.nvm_ctrl.nvm.perBankRdBursts::11         37959                       # Per bank write bursts
system.nvm_ctrl.nvm.perBankRdBursts::12         35178                       # Per bank write bursts
system.nvm_ctrl.nvm.perBankRdBursts::13         32657                       # Per bank write bursts
system.nvm_ctrl.nvm.perBankRdBursts::14         36670                       # Per bank write bursts
system.nvm_ctrl.nvm.perBankRdBursts::15         32228                       # Per bank write bursts
system.nvm_ctrl.nvm.perBankWrBursts::0              0                       # Per bank write bursts
system.nvm_ctrl.nvm.perBankWrBursts::1              0                       # Per bank write bursts
system.nvm_ctrl.nvm.perBankWrBursts::2              0                       # Per bank write bursts
system.nvm_ctrl.nvm.perBankWrBursts::3              0                       # Per bank write bursts
system.nvm_ctrl.nvm.perBankWrBursts::4              0                       # Per bank write bursts
system.nvm_ctrl.nvm.perBankWrBursts::5              0                       # Per bank write bursts
system.nvm_ctrl.nvm.perBankWrBursts::6              0                       # Per bank write bursts
system.nvm_ctrl.nvm.perBankWrBursts::7              0                       # Per bank write bursts
system.nvm_ctrl.nvm.perBankWrBursts::8              0                       # Per bank write bursts
system.nvm_ctrl.nvm.perBankWrBursts::9              0                       # Per bank write bursts
system.nvm_ctrl.nvm.perBankWrBursts::10             0                       # Per bank write bursts
system.nvm_ctrl.nvm.perBankWrBursts::11             0                       # Per bank write bursts
system.nvm_ctrl.nvm.perBankWrBursts::12             0                       # Per bank write bursts
system.nvm_ctrl.nvm.perBankWrBursts::13             0                       # Per bank write bursts
system.nvm_ctrl.nvm.perBankWrBursts::14             0                       # Per bank write bursts
system.nvm_ctrl.nvm.perBankWrBursts::15             0                       # Per bank write bursts
system.nvm_ctrl.nvm.totQLat               62696832000                       # Total ticks spent queuing
system.nvm_ctrl.nvm.totBusLat              1999419912                       # Total ticks spent in databus transfers
system.nvm_ctrl.nvm.totMemAccLat          73193186472                       # Total ticks spent from burst creation until serviced by the NVM
system.nvm_ctrl.nvm.avgQLat                 104483.23                       # Average queueing delay per NVM burst
system.nvm_ctrl.nvm.avgBusLat                 3332.00                       # Average bus latency per NVM burst
system.nvm_ctrl.nvm.avgMemAccLat            121975.23                       # Average memory access latency per NVM burst
system.nvm_ctrl.nvm.bytesRead                38404224                       # Total number of bytes read from DRAM
system.nvm_ctrl.nvm.bytesWritten                    0                       # Total number of bytes written to DRAM
system.nvm_ctrl.nvm.avgRdBW                      0.26                       # Average DRAM read bandwidth in MiBytes/s
system.nvm_ctrl.nvm.avgWrBW                      0.00                       # Average DRAM write bandwidth in MiBytes/s
system.nvm_ctrl.nvm.peakBW                   19207.00                       # Theoretical peak bandwidth in MiByte/s
system.nvm_ctrl.nvm.busUtil                      0.00                       # NVM Data bus utilization in percentage
system.nvm_ctrl.nvm.busUtilRead                  0.00                       # NVM Data bus read utilization in percentage
system.nvm_ctrl.nvm.busUtilWrite                 0.00                       # NVM Data bus write utilization in percentage
system.nvm_ctrl.nvm.pendingReads::samples       600066                       # Reads issued to NVM for which data has not been transferred
system.nvm_ctrl.nvm.pendingReads::0            600066    100.00%    100.00% # Reads issued to NVM for which data has not been transferred
system.nvm_ctrl.nvm.pendingReads::total        600066                       # Reads issued to NVM for which data has not been transferred
system.nvm_ctrl.nvm.bytesPerBank::samples       163273                       # Bytes read within a bank before loading new bank
system.nvm_ctrl.nvm.bytesPerBank::mean     235.198716                       # Bytes read within a bank before loading new bank
system.nvm_ctrl.nvm.bytesPerBank::gmean    197.697337                       # Bytes read within a bank before loading new bank
system.nvm_ctrl.nvm.bytesPerBank::stdev    171.532896                       # Bytes read within a bank before loading new bank
system.nvm_ctrl.nvm.bytesPerBank::64-95         24119     14.77%     14.77% # Bytes read within a bank before loading new bank
system.nvm_ctrl.nvm.bytesPerBank::128-159        24680     15.12%     29.89% # Bytes read within a bank before loading new bank
system.nvm_ctrl.nvm.bytesPerBank::192-223        24118     14.77%     44.66% # Bytes read within a bank before loading new bank
system.nvm_ctrl.nvm.bytesPerBank::256-287        53947     33.04%     77.70% # Bytes read within a bank before loading new bank
system.nvm_ctrl.nvm.bytesPerBank::320-351        20114     12.32%     90.02% # Bytes read within a bank before loading new bank
system.nvm_ctrl.nvm.bytesPerBank::384-415         6592      4.04%     94.06% # Bytes read within a bank before loading new bank
system.nvm_ctrl.nvm.bytesPerBank::448-479         2417      1.48%     95.54% # Bytes read within a bank before loading new bank
system.nvm_ctrl.nvm.bytesPerBank::512-543         3319      2.03%     97.57% # Bytes read within a bank before loading new bank
system.nvm_ctrl.nvm.bytesPerBank::576-607         1138      0.70%     98.27% # Bytes read within a bank before loading new bank
system.nvm_ctrl.nvm.bytesPerBank::640-671          691      0.42%     98.69% # Bytes read within a bank before loading new bank
system.nvm_ctrl.nvm.bytesPerBank::704-735          446      0.27%     98.96% # Bytes read within a bank before loading new bank
system.nvm_ctrl.nvm.bytesPerBank::768-799          409      0.25%     99.21% # Bytes read within a bank before loading new bank
system.nvm_ctrl.nvm.bytesPerBank::832-863          230      0.14%     99.36% # Bytes read within a bank before loading new bank
system.nvm_ctrl.nvm.bytesPerBank::896-927          188      0.12%     99.47% # Bytes read within a bank before loading new bank
system.nvm_ctrl.nvm.bytesPerBank::960-991          133      0.08%     99.55% # Bytes read within a bank before loading new bank
system.nvm_ctrl.nvm.bytesPerBank::1024-1055          116      0.07%     99.62% # Bytes read within a bank before loading new bank
system.nvm_ctrl.nvm.bytesPerBank::1088-1119           89      0.05%     99.68% # Bytes read within a bank before loading new bank
system.nvm_ctrl.nvm.bytesPerBank::1152-1183           47      0.03%     99.71% # Bytes read within a bank before loading new bank
system.nvm_ctrl.nvm.bytesPerBank::1216-1247           55      0.03%     99.74% # Bytes read within a bank before loading new bank
system.nvm_ctrl.nvm.bytesPerBank::1280-1311           45      0.03%     99.77% # Bytes read within a bank before loading new bank
system.nvm_ctrl.nvm.bytesPerBank::1344-1375           34      0.02%     99.79% # Bytes read within a bank before loading new bank
system.nvm_ctrl.nvm.bytesPerBank::1408-1439           29      0.02%     99.81% # Bytes read within a bank before loading new bank
system.nvm_ctrl.nvm.bytesPerBank::1472-1503           23      0.01%     99.82% # Bytes read within a bank before loading new bank
system.nvm_ctrl.nvm.bytesPerBank::1536-1567           27      0.02%     99.84% # Bytes read within a bank before loading new bank
system.nvm_ctrl.nvm.bytesPerBank::1600-1631           22      0.01%     99.85% # Bytes read within a bank before loading new bank
system.nvm_ctrl.nvm.bytesPerBank::1664-1695           12      0.01%     99.86% # Bytes read within a bank before loading new bank
system.nvm_ctrl.nvm.bytesPerBank::1728-1759           17      0.01%     99.87% # Bytes read within a bank before loading new bank
system.nvm_ctrl.nvm.bytesPerBank::1792-1823           18      0.01%     99.88% # Bytes read within a bank before loading new bank
system.nvm_ctrl.nvm.bytesPerBank::1856-1887           11      0.01%     99.89% # Bytes read within a bank before loading new bank
system.nvm_ctrl.nvm.bytesPerBank::1920-1951            8      0.00%     99.89% # Bytes read within a bank before loading new bank
system.nvm_ctrl.nvm.bytesPerBank::1984-2015            6      0.00%     99.89% # Bytes read within a bank before loading new bank
system.nvm_ctrl.nvm.bytesPerBank::2048-2079            9      0.01%     99.90% # Bytes read within a bank before loading new bank
system.nvm_ctrl.nvm.bytesPerBank::2112-2143            2      0.00%     99.90% # Bytes read within a bank before loading new bank
system.nvm_ctrl.nvm.bytesPerBank::2176-2207            2      0.00%     99.90% # Bytes read within a bank before loading new bank
system.nvm_ctrl.nvm.bytesPerBank::2240-2271            8      0.00%     99.91% # Bytes read within a bank before loading new bank
system.nvm_ctrl.nvm.bytesPerBank::2304-2335           12      0.01%     99.91% # Bytes read within a bank before loading new bank
system.nvm_ctrl.nvm.bytesPerBank::2432-2463            1      0.00%     99.91% # Bytes read within a bank before loading new bank
system.nvm_ctrl.nvm.bytesPerBank::2496-2527            5      0.00%     99.92% # Bytes read within a bank before loading new bank
system.nvm_ctrl.nvm.bytesPerBank::2560-2591            6      0.00%     99.92% # Bytes read within a bank before loading new bank
system.nvm_ctrl.nvm.bytesPerBank::2624-2655            1      0.00%     99.92% # Bytes read within a bank before loading new bank
system.nvm_ctrl.nvm.bytesPerBank::2752-2783            5      0.00%     99.93% # Bytes read within a bank before loading new bank
system.nvm_ctrl.nvm.bytesPerBank::2816-2847            7      0.00%     99.93% # Bytes read within a bank before loading new bank
system.nvm_ctrl.nvm.bytesPerBank::2944-2975            1      0.00%     99.93% # Bytes read within a bank before loading new bank
system.nvm_ctrl.nvm.bytesPerBank::3008-3039            7      0.00%     99.93% # Bytes read within a bank before loading new bank
system.nvm_ctrl.nvm.bytesPerBank::3072-3103            6      0.00%     99.94% # Bytes read within a bank before loading new bank
system.nvm_ctrl.nvm.bytesPerBank::3264-3295            6      0.00%     99.94% # Bytes read within a bank before loading new bank
system.nvm_ctrl.nvm.bytesPerBank::3328-3359            5      0.00%     99.94% # Bytes read within a bank before loading new bank
system.nvm_ctrl.nvm.bytesPerBank::3392-3423            1      0.00%     99.95% # Bytes read within a bank before loading new bank
system.nvm_ctrl.nvm.bytesPerBank::3520-3551            7      0.00%     99.95% # Bytes read within a bank before loading new bank
system.nvm_ctrl.nvm.bytesPerBank::3584-3615            5      0.00%     99.95% # Bytes read within a bank before loading new bank
system.nvm_ctrl.nvm.bytesPerBank::3648-3679            1      0.00%     99.95% # Bytes read within a bank before loading new bank
system.nvm_ctrl.nvm.bytesPerBank::3776-3807            5      0.00%     99.96% # Bytes read within a bank before loading new bank
system.nvm_ctrl.nvm.bytesPerBank::3840-3871            5      0.00%     99.96% # Bytes read within a bank before loading new bank
system.nvm_ctrl.nvm.bytesPerBank::3904-3935            2      0.00%     99.96% # Bytes read within a bank before loading new bank
system.nvm_ctrl.nvm.bytesPerBank::4032-4063           32      0.02%     99.98% # Bytes read within a bank before loading new bank
system.nvm_ctrl.nvm.bytesPerBank::4096-4127           28      0.02%    100.00% # Bytes read within a bank before loading new bank
system.nvm_ctrl.nvm.bytesPerBank::4288-4319            3      0.00%    100.00% # Bytes read within a bank before loading new bank
system.nvm_ctrl.nvm.bytesPerBank::4352-4383            1      0.00%    100.00% # Bytes read within a bank before loading new bank
system.nvm_ctrl.nvm.bytesPerBank::total        163273                       # Bytes read within a bank before loading new bank
system.nvm_ctrl.nvm.power_state.pwrStateResidencyTicks::UNDEFINED 146983965375000                       # Cumulative time (in ticks) in various power states
system.nvm_ctrl.power_state.pwrStateResidencyTicks::UNDEFINED 146983965375000                       # Cumulative time (in ticks) in various power states

---------- End Simulation Statistics   ----------
