
---------- Begin Simulation Statistics ----------
final_tick                               1060444765000                       # Number of ticks from beginning of simulation (restored from checkpoints and never reset)
host_inst_rate                                 213688                       # Simulator instruction rate (inst/s)
host_mem_usage                                1473700                       # Number of bytes of host memory used
host_op_rate                                   356436                       # Simulator op (including micro ops) rate (op/s)
host_seconds                                  1536.44                       # Real time elapsed on the host
host_tick_rate                              690194248                       # Simulator tick rate (ticks/s)
sim_freq                                 1000000000000                       # Frequency of simulated ticks
sim_insts                                   328319690                       # Number of instructions simulated
sim_ops                                     547643199                       # Number of ops (including micro ops) simulated
sim_seconds                                  1.060445                       # Number of seconds simulated
sim_ticks                                1060444765000                       # Number of ticks simulated
system.cpu0.Branches                         31200199                       # Number of branches fetched
system.cpu0.committedInsts                  274236123                       # Number of instructions committed
system.cpu0.committedOps                    454676486                       # Number of ops (including micro ops) committed
system.cpu0.idle_fraction                    0.000000                       # Percentage of idle cycles
system.cpu0.not_idle_fraction                1.000000                       # Percentage of non-idle cycles
system.cpu0.numCycles                      1060444765                       # number of cpu cycles simulated
system.cpu0.numWorkItemsCompleted                   0                       # number of work items this cpu completed
system.cpu0.numWorkItemsStarted                     0                       # number of work items this cpu started
system.cpu0.num_busy_cycles              1060444764.999000                       # Number of busy cycles
system.cpu0.num_cc_register_reads           168793252                       # number of times the CC registers were read
system.cpu0.num_cc_register_writes          169619573                       # number of times the CC registers were written
system.cpu0.num_conditional_control_insts     30668793                       # number of instructions that are conditional controls
system.cpu0.num_fp_alu_accesses                  1150                       # Number of float alu accesses
system.cpu0.num_fp_insts                         1150                       # number of float instructions
system.cpu0.num_fp_register_reads                1322                       # number of times the floating registers were read
system.cpu0.num_fp_register_writes                637                       # number of times the floating registers were written
system.cpu0.num_func_calls                     455014                       # number of times a function call or return occured
system.cpu0.num_idle_cycles                  0.001000                       # Number of idle cycles
system.cpu0.num_int_alu_accesses            454296939                       # Number of integer alu accesses
system.cpu0.num_int_insts                   454296939                       # number of integer instructions
system.cpu0.num_int_register_reads          812224031                       # number of times the integer registers were read
system.cpu0.num_int_register_writes         405573031                       # number of times the integer registers were written
system.cpu0.num_load_insts                   94426196                       # Number of load instructions
system.cpu0.num_mem_refs                    111950063                       # number of memory refs
system.cpu0.num_store_insts                  17523867                       # Number of store instructions
system.cpu0.num_vec_alu_accesses                    0                       # Number of vector alu accesses
system.cpu0.num_vec_insts                           0                       # number of vector instructions
system.cpu0.num_vec_register_reads                  0                       # number of times the vector registers were read
system.cpu0.num_vec_register_writes                 0                       # number of times the vector registers were written
system.cpu0.op_class::No_OpClass               227646      0.05%      0.05% # Class of executed instruction
system.cpu0.op_class::IntAlu                342498074     75.33%     75.38% # Class of executed instruction
system.cpu0.op_class::IntMult                     205      0.00%     75.38% # Class of executed instruction
system.cpu0.op_class::IntDiv                       21      0.00%     75.38% # Class of executed instruction
system.cpu0.op_class::FloatAdd                    135      0.00%     75.38% # Class of executed instruction
system.cpu0.op_class::FloatCmp                      0      0.00%     75.38% # Class of executed instruction
system.cpu0.op_class::FloatCvt                      0      0.00%     75.38% # Class of executed instruction
system.cpu0.op_class::FloatMult                     0      0.00%     75.38% # Class of executed instruction
system.cpu0.op_class::FloatMultAcc                  0      0.00%     75.38% # Class of executed instruction
system.cpu0.op_class::FloatDiv                      0      0.00%     75.38% # Class of executed instruction
system.cpu0.op_class::FloatMisc                     0      0.00%     75.38% # Class of executed instruction
system.cpu0.op_class::FloatSqrt                     0      0.00%     75.38% # Class of executed instruction
system.cpu0.op_class::SimdAdd                       0      0.00%     75.38% # Class of executed instruction
system.cpu0.op_class::SimdAddAcc                    0      0.00%     75.38% # Class of executed instruction
system.cpu0.op_class::SimdAlu                      94      0.00%     75.38% # Class of executed instruction
system.cpu0.op_class::SimdCmp                       0      0.00%     75.38% # Class of executed instruction
system.cpu0.op_class::SimdCvt                      46      0.00%     75.38% # Class of executed instruction
system.cpu0.op_class::SimdMisc                    215      0.00%     75.38% # Class of executed instruction
system.cpu0.op_class::SimdMult                      0      0.00%     75.38% # Class of executed instruction
system.cpu0.op_class::SimdMultAcc                   0      0.00%     75.38% # Class of executed instruction
system.cpu0.op_class::SimdShift                     0      0.00%     75.38% # Class of executed instruction
system.cpu0.op_class::SimdShiftAcc                  0      0.00%     75.38% # Class of executed instruction
system.cpu0.op_class::SimdDiv                       0      0.00%     75.38% # Class of executed instruction
system.cpu0.op_class::SimdSqrt                      0      0.00%     75.38% # Class of executed instruction
system.cpu0.op_class::SimdFloatAdd                  0      0.00%     75.38% # Class of executed instruction
system.cpu0.op_class::SimdFloatAlu                  0      0.00%     75.38% # Class of executed instruction
system.cpu0.op_class::SimdFloatCmp                  0      0.00%     75.38% # Class of executed instruction
system.cpu0.op_class::SimdFloatCvt                  0      0.00%     75.38% # Class of executed instruction
system.cpu0.op_class::SimdFloatDiv                  0      0.00%     75.38% # Class of executed instruction
system.cpu0.op_class::SimdFloatMisc                 0      0.00%     75.38% # Class of executed instruction
system.cpu0.op_class::SimdFloatMult                 0      0.00%     75.38% # Class of executed instruction
system.cpu0.op_class::SimdFloatMultAcc              0      0.00%     75.38% # Class of executed instruction
system.cpu0.op_class::SimdFloatSqrt                 0      0.00%     75.38% # Class of executed instruction
system.cpu0.op_class::SimdReduceAdd                 0      0.00%     75.38% # Class of executed instruction
system.cpu0.op_class::SimdReduceAlu                 0      0.00%     75.38% # Class of executed instruction
system.cpu0.op_class::SimdReduceCmp                 0      0.00%     75.38% # Class of executed instruction
system.cpu0.op_class::SimdFloatReduceAdd            0      0.00%     75.38% # Class of executed instruction
system.cpu0.op_class::SimdFloatReduceCmp            0      0.00%     75.38% # Class of executed instruction
system.cpu0.op_class::SimdAes                       0      0.00%     75.38% # Class of executed instruction
system.cpu0.op_class::SimdAesMix                    0      0.00%     75.38% # Class of executed instruction
system.cpu0.op_class::SimdSha1Hash                  0      0.00%     75.38% # Class of executed instruction
system.cpu0.op_class::SimdSha1Hash2                 0      0.00%     75.38% # Class of executed instruction
system.cpu0.op_class::SimdSha256Hash                0      0.00%     75.38% # Class of executed instruction
system.cpu0.op_class::SimdSha256Hash2               0      0.00%     75.38% # Class of executed instruction
system.cpu0.op_class::SimdShaSigma2                 0      0.00%     75.38% # Class of executed instruction
system.cpu0.op_class::SimdShaSigma3                 0      0.00%     75.38% # Class of executed instruction
system.cpu0.op_class::SimdPredAlu                   0      0.00%     75.38% # Class of executed instruction
system.cpu0.op_class::MemRead                94426142     20.77%     96.15% # Class of executed instruction
system.cpu0.op_class::MemWrite               17523400      3.85%    100.00% # Class of executed instruction
system.cpu0.op_class::FloatMemRead                 54      0.00%    100.00% # Class of executed instruction
system.cpu0.op_class::FloatMemWrite               467      0.00%    100.00% # Class of executed instruction
system.cpu0.op_class::IprAccess                     0      0.00%    100.00% # Class of executed instruction
system.cpu0.op_class::InstPrefetch                  0      0.00%    100.00% # Class of executed instruction
system.cpu0.op_class::total                 454676499                       # Class of executed instruction
system.cpu0.workload.numSyscalls                   10                       # Number of system calls
system.cpu1.Branches                             4582                       # Number of branches fetched
system.cpu1.committedInsts                      22212                       # Number of instructions committed
system.cpu1.committedOps                        42928                       # Number of ops (including micro ops) committed
system.cpu1.idle_fraction                    0.999808                       # Percentage of idle cycles
system.cpu1.not_idle_fraction                0.000192                       # Percentage of non-idle cycles
system.cpu1.numCycles                       372283788                       # number of cpu cycles simulated
system.cpu1.numWorkItemsCompleted                   0                       # number of work items this cpu completed
system.cpu1.numWorkItemsStarted                     0                       # number of work items this cpu started
system.cpu1.num_busy_cycles              71402.869947                       # Number of busy cycles
system.cpu1.num_cc_register_reads               21981                       # number of times the CC registers were read
system.cpu1.num_cc_register_writes              12688                       # number of times the CC registers were written
system.cpu1.num_conditional_control_insts         3244                       # number of instructions that are conditional controls
system.cpu1.num_fp_alu_accesses                  2205                       # Number of float alu accesses
system.cpu1.num_fp_insts                         2205                       # number of float instructions
system.cpu1.num_fp_register_reads                2358                       # number of times the floating registers were read
system.cpu1.num_fp_register_writes               1079                       # number of times the floating registers were written
system.cpu1.num_func_calls                        982                       # number of times a function call or return occured
system.cpu1.num_idle_cycles              372212385.130053                       # Number of idle cycles
system.cpu1.num_int_alu_accesses                41240                       # Number of integer alu accesses
system.cpu1.num_int_insts                       41240                       # number of integer instructions
system.cpu1.num_int_register_reads              81440                       # number of times the integer registers were read
system.cpu1.num_int_register_writes             31910                       # number of times the integer registers were written
system.cpu1.num_load_insts                       4986                       # Number of load instructions
system.cpu1.num_mem_refs                         9561                       # number of memory refs
system.cpu1.num_store_insts                      4575                       # Number of store instructions
system.cpu1.num_vec_alu_accesses                    0                       # Number of vector alu accesses
system.cpu1.num_vec_insts                           0                       # number of vector instructions
system.cpu1.num_vec_register_reads                  0                       # number of times the vector registers were read
system.cpu1.num_vec_register_writes                 0                       # number of times the vector registers were written
system.cpu1.op_class::No_OpClass                  697      1.62%      1.62% # Class of executed instruction
system.cpu1.op_class::IntAlu                    31927     74.30%     75.92% # Class of executed instruction
system.cpu1.op_class::IntMult                      14      0.03%     75.95% # Class of executed instruction
system.cpu1.op_class::IntDiv                       42      0.10%     76.05% # Class of executed instruction
system.cpu1.op_class::FloatAdd                    183      0.43%     76.47% # Class of executed instruction
system.cpu1.op_class::FloatCmp                      0      0.00%     76.47% # Class of executed instruction
system.cpu1.op_class::FloatCvt                      0      0.00%     76.47% # Class of executed instruction
system.cpu1.op_class::FloatMult                     0      0.00%     76.47% # Class of executed instruction
system.cpu1.op_class::FloatMultAcc                  0      0.00%     76.47% # Class of executed instruction
system.cpu1.op_class::FloatDiv                      0      0.00%     76.47% # Class of executed instruction
system.cpu1.op_class::FloatMisc                     0      0.00%     76.47% # Class of executed instruction
system.cpu1.op_class::FloatSqrt                     0      0.00%     76.47% # Class of executed instruction
system.cpu1.op_class::SimdAdd                       0      0.00%     76.47% # Class of executed instruction
system.cpu1.op_class::SimdAddAcc                    0      0.00%     76.47% # Class of executed instruction
system.cpu1.op_class::SimdAlu                     134      0.31%     76.79% # Class of executed instruction
system.cpu1.op_class::SimdCmp                       0      0.00%     76.79% # Class of executed instruction
system.cpu1.op_class::SimdCvt                      62      0.14%     76.93% # Class of executed instruction
system.cpu1.op_class::SimdMisc                    346      0.81%     77.73% # Class of executed instruction
system.cpu1.op_class::SimdMult                      0      0.00%     77.73% # Class of executed instruction
system.cpu1.op_class::SimdMultAcc                   0      0.00%     77.73% # Class of executed instruction
system.cpu1.op_class::SimdShift                     0      0.00%     77.73% # Class of executed instruction
system.cpu1.op_class::SimdShiftAcc                  0      0.00%     77.73% # Class of executed instruction
system.cpu1.op_class::SimdDiv                       0      0.00%     77.73% # Class of executed instruction
system.cpu1.op_class::SimdSqrt                      0      0.00%     77.73% # Class of executed instruction
system.cpu1.op_class::SimdFloatAdd                  0      0.00%     77.73% # Class of executed instruction
system.cpu1.op_class::SimdFloatAlu                  0      0.00%     77.73% # Class of executed instruction
system.cpu1.op_class::SimdFloatCmp                  0      0.00%     77.73% # Class of executed instruction
system.cpu1.op_class::SimdFloatCvt                  5      0.01%     77.75% # Class of executed instruction
system.cpu1.op_class::SimdFloatDiv                  0      0.00%     77.75% # Class of executed instruction
system.cpu1.op_class::SimdFloatMisc                 0      0.00%     77.75% # Class of executed instruction
system.cpu1.op_class::SimdFloatMult                 2      0.00%     77.75% # Class of executed instruction
system.cpu1.op_class::SimdFloatMultAcc              0      0.00%     77.75% # Class of executed instruction
system.cpu1.op_class::SimdFloatSqrt                 0      0.00%     77.75% # Class of executed instruction
system.cpu1.op_class::SimdReduceAdd                 0      0.00%     77.75% # Class of executed instruction
system.cpu1.op_class::SimdReduceAlu                 0      0.00%     77.75% # Class of executed instruction
system.cpu1.op_class::SimdReduceCmp                 0      0.00%     77.75% # Class of executed instruction
system.cpu1.op_class::SimdFloatReduceAdd            0      0.00%     77.75% # Class of executed instruction
system.cpu1.op_class::SimdFloatReduceCmp            0      0.00%     77.75% # Class of executed instruction
system.cpu1.op_class::SimdAes                       0      0.00%     77.75% # Class of executed instruction
system.cpu1.op_class::SimdAesMix                    0      0.00%     77.75% # Class of executed instruction
system.cpu1.op_class::SimdSha1Hash                  0      0.00%     77.75% # Class of executed instruction
system.cpu1.op_class::SimdSha1Hash2                 0      0.00%     77.75% # Class of executed instruction
system.cpu1.op_class::SimdSha256Hash                0      0.00%     77.75% # Class of executed instruction
system.cpu1.op_class::SimdSha256Hash2               0      0.00%     77.75% # Class of executed instruction
system.cpu1.op_class::SimdShaSigma2                 0      0.00%     77.75% # Class of executed instruction
system.cpu1.op_class::SimdShaSigma3                 0      0.00%     77.75% # Class of executed instruction
system.cpu1.op_class::SimdPredAlu                   0      0.00%     77.75% # Class of executed instruction
system.cpu1.op_class::MemRead                    4755     11.07%     88.82% # Class of executed instruction
system.cpu1.op_class::MemWrite                   3507      8.16%     96.98% # Class of executed instruction
system.cpu1.op_class::FloatMemRead                231      0.54%     97.51% # Class of executed instruction
system.cpu1.op_class::FloatMemWrite              1068      2.49%    100.00% # Class of executed instruction
system.cpu1.op_class::IprAccess                     0      0.00%    100.00% # Class of executed instruction
system.cpu1.op_class::InstPrefetch                  0      0.00%    100.00% # Class of executed instruction
system.cpu1.op_class::total                     42973                       # Class of executed instruction
system.cpu1.workload.numSyscalls                   35                       # Number of system calls
system.cpu2.Branches                           993347                       # Number of branches fetched
system.cpu2.committedInsts                   25169721                       # Number of instructions committed
system.cpu2.committedOps                     43025563                       # Number of ops (including micro ops) committed
system.cpu2.idle_fraction                    0.660790                       # Percentage of idle cycles
system.cpu2.not_idle_fraction                0.339210                       # Percentage of non-idle cycles
system.cpu2.numCycles                       370040491                       # number of cpu cycles simulated
system.cpu2.numWorkItemsCompleted                   0                       # number of work items this cpu completed
system.cpu2.numWorkItemsStarted                     0                       # number of work items this cpu started
system.cpu2.num_busy_cycles              125521555.780378                       # Number of busy cycles
system.cpu2.num_cc_register_reads             4831738                       # number of times the CC registers were read
system.cpu2.num_cc_register_writes           11977499                       # number of times the CC registers were written
system.cpu2.num_conditional_control_insts       932180                       # number of instructions that are conditional controls
system.cpu2.num_fp_alu_accesses                 31329                       # Number of float alu accesses
system.cpu2.num_fp_insts                        31329                       # number of float instructions
system.cpu2.num_fp_register_reads               39111                       # number of times the floating registers were read
system.cpu2.num_fp_register_writes              26838                       # number of times the floating registers were written
system.cpu2.num_func_calls                       2393                       # number of times a function call or return occured
system.cpu2.num_idle_cycles              244518935.219622                       # Number of idle cycles
system.cpu2.num_int_alu_accesses             43000488                       # Number of integer alu accesses
system.cpu2.num_int_insts                    43000488                       # number of integer instructions
system.cpu2.num_int_register_reads          108152220                       # number of times the integer registers were read
system.cpu2.num_int_register_writes          37839131                       # number of times the integer registers were written
system.cpu2.num_load_insts                   12611885                       # Number of load instructions
system.cpu2.num_mem_refs                     18445651                       # number of memory refs
system.cpu2.num_store_insts                   5833766                       # Number of store instructions
system.cpu2.num_vec_alu_accesses                    0                       # Number of vector alu accesses
system.cpu2.num_vec_insts                           0                       # number of vector instructions
system.cpu2.num_vec_register_reads                  0                       # number of times the vector registers were read
system.cpu2.num_vec_register_writes                 0                       # number of times the vector registers were written
system.cpu2.op_class::No_OpClass                 5615      0.01%      0.01% # Class of executed instruction
system.cpu2.op_class::IntAlu                 22909662     53.25%     53.26% # Class of executed instruction
system.cpu2.op_class::IntMult                 1619937      3.77%     57.02% # Class of executed instruction
system.cpu2.op_class::IntDiv                    25016      0.06%     57.08% # Class of executed instruction
system.cpu2.op_class::FloatAdd                   5888      0.01%     57.10% # Class of executed instruction
system.cpu2.op_class::FloatCmp                      0      0.00%     57.10% # Class of executed instruction
system.cpu2.op_class::FloatCvt                      0      0.00%     57.10% # Class of executed instruction
system.cpu2.op_class::FloatMult                     0      0.00%     57.10% # Class of executed instruction
system.cpu2.op_class::FloatMultAcc                  0      0.00%     57.10% # Class of executed instruction
system.cpu2.op_class::FloatDiv                      0      0.00%     57.10% # Class of executed instruction
system.cpu2.op_class::FloatMisc                     0      0.00%     57.10% # Class of executed instruction
system.cpu2.op_class::FloatSqrt                     0      0.00%     57.10% # Class of executed instruction
system.cpu2.op_class::SimdAdd                       0      0.00%     57.10% # Class of executed instruction
system.cpu2.op_class::SimdAddAcc                    0      0.00%     57.10% # Class of executed instruction
system.cpu2.op_class::SimdAlu                    1328      0.00%     57.10% # Class of executed instruction
system.cpu2.op_class::SimdCmp                       0      0.00%     57.10% # Class of executed instruction
system.cpu2.op_class::SimdCvt                      20      0.00%     57.10% # Class of executed instruction
system.cpu2.op_class::SimdMisc                   1941      0.00%     57.10% # Class of executed instruction
system.cpu2.op_class::SimdMult                      0      0.00%     57.10% # Class of executed instruction
system.cpu2.op_class::SimdMultAcc                   0      0.00%     57.10% # Class of executed instruction
system.cpu2.op_class::SimdShift                     0      0.00%     57.10% # Class of executed instruction
system.cpu2.op_class::SimdShiftAcc                  0      0.00%     57.10% # Class of executed instruction
system.cpu2.op_class::SimdDiv                       0      0.00%     57.10% # Class of executed instruction
system.cpu2.op_class::SimdSqrt                      0      0.00%     57.10% # Class of executed instruction
system.cpu2.op_class::SimdFloatAdd               3611      0.01%     57.11% # Class of executed instruction
system.cpu2.op_class::SimdFloatAlu                  0      0.00%     57.11% # Class of executed instruction
system.cpu2.op_class::SimdFloatCmp                  0      0.00%     57.11% # Class of executed instruction
system.cpu2.op_class::SimdFloatCvt               2324      0.01%     57.12% # Class of executed instruction
system.cpu2.op_class::SimdFloatDiv                362      0.00%     57.12% # Class of executed instruction
system.cpu2.op_class::SimdFloatMisc                 0      0.00%     57.12% # Class of executed instruction
system.cpu2.op_class::SimdFloatMult              4229      0.01%     57.13% # Class of executed instruction
system.cpu2.op_class::SimdFloatMultAcc              0      0.00%     57.13% # Class of executed instruction
system.cpu2.op_class::SimdFloatSqrt                 0      0.00%     57.13% # Class of executed instruction
system.cpu2.op_class::SimdReduceAdd                 0      0.00%     57.13% # Class of executed instruction
system.cpu2.op_class::SimdReduceAlu                 0      0.00%     57.13% # Class of executed instruction
system.cpu2.op_class::SimdReduceCmp                 0      0.00%     57.13% # Class of executed instruction
system.cpu2.op_class::SimdFloatReduceAdd            0      0.00%     57.13% # Class of executed instruction
system.cpu2.op_class::SimdFloatReduceCmp            0      0.00%     57.13% # Class of executed instruction
system.cpu2.op_class::SimdAes                       0      0.00%     57.13% # Class of executed instruction
system.cpu2.op_class::SimdAesMix                    0      0.00%     57.13% # Class of executed instruction
system.cpu2.op_class::SimdSha1Hash                  0      0.00%     57.13% # Class of executed instruction
system.cpu2.op_class::SimdSha1Hash2                 0      0.00%     57.13% # Class of executed instruction
system.cpu2.op_class::SimdSha256Hash                0      0.00%     57.13% # Class of executed instruction
system.cpu2.op_class::SimdSha256Hash2               0      0.00%     57.13% # Class of executed instruction
system.cpu2.op_class::SimdShaSigma2                 0      0.00%     57.13% # Class of executed instruction
system.cpu2.op_class::SimdShaSigma3                 0      0.00%     57.13% # Class of executed instruction
system.cpu2.op_class::SimdPredAlu                   0      0.00%     57.13% # Class of executed instruction
system.cpu2.op_class::MemRead                12604009     29.29%     86.42% # Class of executed instruction
system.cpu2.op_class::MemWrite                5831466     13.55%     99.98% # Class of executed instruction
system.cpu2.op_class::FloatMemRead               7876      0.02%     99.99% # Class of executed instruction
system.cpu2.op_class::FloatMemWrite              2300      0.01%    100.00% # Class of executed instruction
system.cpu2.op_class::IprAccess                     0      0.00%    100.00% # Class of executed instruction
system.cpu2.op_class::InstPrefetch                  0      0.00%    100.00% # Class of executed instruction
system.cpu2.op_class::total                  43025584                       # Class of executed instruction
system.cpu3.Branches                          1717166                       # Number of branches fetched
system.cpu3.committedInsts                   28891634                       # Number of instructions committed
system.cpu3.committedOps                     49898222                       # Number of ops (including micro ops) committed
system.cpu3.idle_fraction                    0.649123                       # Percentage of idle cycles
system.cpu3.not_idle_fraction                0.350877                       # Percentage of non-idle cycles
system.cpu3.numCycles                       372245149                       # number of cpu cycles simulated
system.cpu3.numWorkItemsCompleted                   0                       # number of work items this cpu completed
system.cpu3.numWorkItemsStarted                     0                       # number of work items this cpu started
system.cpu3.num_busy_cycles              130612124.311951                       # Number of busy cycles
system.cpu3.num_cc_register_reads             7690298                       # number of times the CC registers were read
system.cpu3.num_cc_register_writes           14079437                       # number of times the CC registers were written
system.cpu3.num_conditional_control_insts      1333458                       # number of instructions that are conditional controls
system.cpu3.num_fp_alu_accesses                 34342                       # Number of float alu accesses
system.cpu3.num_fp_insts                        34342                       # number of float instructions
system.cpu3.num_fp_register_reads               43425                       # number of times the floating registers were read
system.cpu3.num_fp_register_writes              29257                       # number of times the floating registers were written
system.cpu3.num_func_calls                     195537                       # number of times a function call or return occured
system.cpu3.num_idle_cycles              241633024.688049                       # Number of idle cycles
system.cpu3.num_int_alu_accesses             49848076                       # Number of integer alu accesses
system.cpu3.num_int_insts                    49848076                       # number of integer instructions
system.cpu3.num_int_register_reads          122019549                       # number of times the integer registers were read
system.cpu3.num_int_register_writes          43553765                       # number of times the integer registers were written
system.cpu3.num_load_insts                   13423081                       # Number of load instructions
system.cpu3.num_mem_refs                     19701595                       # number of memory refs
system.cpu3.num_store_insts                   6278514                       # Number of store instructions
system.cpu3.num_vec_alu_accesses                    0                       # Number of vector alu accesses
system.cpu3.num_vec_insts                           0                       # number of vector instructions
system.cpu3.num_vec_register_reads                  0                       # number of times the vector registers were read
system.cpu3.num_vec_register_writes                 0                       # number of times the vector registers were written
system.cpu3.op_class::No_OpClass                28756      0.06%      0.06% # Class of executed instruction
system.cpu3.op_class::IntAlu                 28465747     57.05%     57.11% # Class of executed instruction
system.cpu3.op_class::IntMult                 1654841      3.32%     60.42% # Class of executed instruction
system.cpu3.op_class::IntDiv                    25548      0.05%     60.47% # Class of executed instruction
system.cpu3.op_class::FloatAdd                   6182      0.01%     60.49% # Class of executed instruction
system.cpu3.op_class::FloatCmp                      0      0.00%     60.49% # Class of executed instruction
system.cpu3.op_class::FloatCvt                      0      0.00%     60.49% # Class of executed instruction
system.cpu3.op_class::FloatMult                     0      0.00%     60.49% # Class of executed instruction
system.cpu3.op_class::FloatMultAcc                  0      0.00%     60.49% # Class of executed instruction
system.cpu3.op_class::FloatDiv                      0      0.00%     60.49% # Class of executed instruction
system.cpu3.op_class::FloatMisc                     0      0.00%     60.49% # Class of executed instruction
system.cpu3.op_class::FloatSqrt                     0      0.00%     60.49% # Class of executed instruction
system.cpu3.op_class::SimdAdd                       0      0.00%     60.49% # Class of executed instruction
system.cpu3.op_class::SimdAddAcc                    0      0.00%     60.49% # Class of executed instruction
system.cpu3.op_class::SimdAlu                    2118      0.00%     60.49% # Class of executed instruction
system.cpu3.op_class::SimdCmp                       0      0.00%     60.49% # Class of executed instruction
system.cpu3.op_class::SimdCvt                     210      0.00%     60.49% # Class of executed instruction
system.cpu3.op_class::SimdMisc                   2341      0.00%     60.49% # Class of executed instruction
system.cpu3.op_class::SimdMult                      0      0.00%     60.49% # Class of executed instruction
system.cpu3.op_class::SimdMultAcc                   0      0.00%     60.49% # Class of executed instruction
system.cpu3.op_class::SimdShift                     0      0.00%     60.49% # Class of executed instruction
system.cpu3.op_class::SimdShiftAcc                  0      0.00%     60.49% # Class of executed instruction
system.cpu3.op_class::SimdDiv                       0      0.00%     60.49% # Class of executed instruction
system.cpu3.op_class::SimdSqrt                      0      0.00%     60.49% # Class of executed instruction
system.cpu3.op_class::SimdFloatAdd               3752      0.01%     60.50% # Class of executed instruction
system.cpu3.op_class::SimdFloatAlu                  0      0.00%     60.50% # Class of executed instruction
system.cpu3.op_class::SimdFloatCmp                  0      0.00%     60.50% # Class of executed instruction
system.cpu3.op_class::SimdFloatCvt               2399      0.00%     60.51% # Class of executed instruction
system.cpu3.op_class::SimdFloatDiv                377      0.00%     60.51% # Class of executed instruction
system.cpu3.op_class::SimdFloatMisc                 0      0.00%     60.51% # Class of executed instruction
system.cpu3.op_class::SimdFloatMult              4384      0.01%     60.52% # Class of executed instruction
system.cpu3.op_class::SimdFloatMultAcc              0      0.00%     60.52% # Class of executed instruction
system.cpu3.op_class::SimdFloatSqrt                 0      0.00%     60.52% # Class of executed instruction
system.cpu3.op_class::SimdReduceAdd                 0      0.00%     60.52% # Class of executed instruction
system.cpu3.op_class::SimdReduceAlu                 0      0.00%     60.52% # Class of executed instruction
system.cpu3.op_class::SimdReduceCmp                 0      0.00%     60.52% # Class of executed instruction
system.cpu3.op_class::SimdFloatReduceAdd            0      0.00%     60.52% # Class of executed instruction
system.cpu3.op_class::SimdFloatReduceCmp            0      0.00%     60.52% # Class of executed instruction
system.cpu3.op_class::SimdAes                       0      0.00%     60.52% # Class of executed instruction
system.cpu3.op_class::SimdAesMix                    0      0.00%     60.52% # Class of executed instruction
system.cpu3.op_class::SimdSha1Hash                  0      0.00%     60.52% # Class of executed instruction
system.cpu3.op_class::SimdSha1Hash2                 0      0.00%     60.52% # Class of executed instruction
system.cpu3.op_class::SimdSha256Hash                0      0.00%     60.52% # Class of executed instruction
system.cpu3.op_class::SimdSha256Hash2               0      0.00%     60.52% # Class of executed instruction
system.cpu3.op_class::SimdShaSigma2                 0      0.00%     60.52% # Class of executed instruction
system.cpu3.op_class::SimdShaSigma3                 0      0.00%     60.52% # Class of executed instruction
system.cpu3.op_class::SimdPredAlu                   0      0.00%     60.52% # Class of executed instruction
system.cpu3.op_class::MemRead                13414750     26.88%     87.40% # Class of executed instruction
system.cpu3.op_class::MemWrite                6275899     12.58%     99.98% # Class of executed instruction
system.cpu3.op_class::FloatMemRead               8331      0.02%     99.99% # Class of executed instruction
system.cpu3.op_class::FloatMemWrite              2615      0.01%    100.00% # Class of executed instruction
system.cpu3.op_class::IprAccess                     0      0.00%    100.00% # Class of executed instruction
system.cpu3.op_class::InstPrefetch                  0      0.00%    100.00% # Class of executed instruction
system.cpu3.op_class::total                  49898250                       # Class of executed instruction
system.noc_network.Directory.incomplete_times_seqr       451362                      
system.noc_network.Directory.miss_latency_hist_seqr.first_response_to_completion::bucket_size            8                      
system.noc_network.Directory.miss_latency_hist_seqr.first_response_to_completion::max_bucket           79                      
system.noc_network.Directory.miss_latency_hist_seqr.first_response_to_completion::samples            2                      
system.noc_network.Directory.miss_latency_hist_seqr.first_response_to_completion::mean           72                      
system.noc_network.Directory.miss_latency_hist_seqr.first_response_to_completion::gmean    71.888803                      
system.noc_network.Directory.miss_latency_hist_seqr.first_response_to_completion::stdev     5.656854                      
system.noc_network.Directory.miss_latency_hist_seqr.first_response_to_completion |           0      0.00%      0.00% |           0      0.00%      0.00% |           0      0.00%      0.00% |           0      0.00%      0.00% |           0      0.00%      0.00% |           0      0.00%      0.00% |           0      0.00%      0.00% |           0      0.00%      0.00% |           1     50.00%     50.00% |           1     50.00%    100.00%
system.noc_network.Directory.miss_latency_hist_seqr.first_response_to_completion::total            2                      
system.noc_network.Directory.miss_latency_hist_seqr.forward_to_first_response::bucket_size            1                      
system.noc_network.Directory.miss_latency_hist_seqr.forward_to_first_response::max_bucket            9                      
system.noc_network.Directory.miss_latency_hist_seqr.forward_to_first_response::samples            2                      
system.noc_network.Directory.miss_latency_hist_seqr.forward_to_first_response |           2    100.00%    100.00% |           0      0.00%    100.00% |           0      0.00%    100.00% |           0      0.00%    100.00% |           0      0.00%    100.00% |           0      0.00%    100.00% |           0      0.00%    100.00% |           0      0.00%    100.00% |           0      0.00%    100.00% |           0      0.00%    100.00%
system.noc_network.Directory.miss_latency_hist_seqr.forward_to_first_response::total            2                      
system.noc_network.Directory.miss_latency_hist_seqr.initial_to_forward::bucket_size            1                      
system.noc_network.Directory.miss_latency_hist_seqr.initial_to_forward::max_bucket            9                      
system.noc_network.Directory.miss_latency_hist_seqr.initial_to_forward::samples            2                      
system.noc_network.Directory.miss_latency_hist_seqr.initial_to_forward |           2    100.00%    100.00% |           0      0.00%    100.00% |           0      0.00%    100.00% |           0      0.00%    100.00% |           0      0.00%    100.00% |           0      0.00%    100.00% |           0      0.00%    100.00% |           0      0.00%    100.00% |           0      0.00%    100.00% |           0      0.00%    100.00%
system.noc_network.Directory.miss_latency_hist_seqr.initial_to_forward::total            2                      
system.noc_network.Directory.miss_latency_hist_seqr.issue_to_initial_request::bucket_size            1                      
system.noc_network.Directory.miss_latency_hist_seqr.issue_to_initial_request::max_bucket            9                      
system.noc_network.Directory.miss_latency_hist_seqr.issue_to_initial_request::samples            2                      
system.noc_network.Directory.miss_latency_hist_seqr.issue_to_initial_request |           2    100.00%    100.00% |           0      0.00%    100.00% |           0      0.00%    100.00% |           0      0.00%    100.00% |           0      0.00%    100.00% |           0      0.00%    100.00% |           0      0.00%    100.00% |           0      0.00%    100.00% |           0      0.00%    100.00% |           0      0.00%    100.00%
system.noc_network.Directory.miss_latency_hist_seqr.issue_to_initial_request::total            2                      
system.noc_network.Directory.miss_mach_latency_hist_seqr::bucket_size            8                      
system.noc_network.Directory.miss_mach_latency_hist_seqr::max_bucket           79                      
system.noc_network.Directory.miss_mach_latency_hist_seqr::samples       451364                      
system.noc_network.Directory.miss_mach_latency_hist_seqr::mean     0.000319                      
system.noc_network.Directory.miss_mach_latency_hist_seqr::stdev     0.151793                      
system.noc_network.Directory.miss_mach_latency_hist_seqr |      451362    100.00%    100.00% |           0      0.00%    100.00% |           0      0.00%    100.00% |           0      0.00%    100.00% |           0      0.00%    100.00% |           0      0.00%    100.00% |           0      0.00%    100.00% |           0      0.00%    100.00% |           1      0.00%    100.00% |           1      0.00%    100.00%
system.noc_network.Directory.miss_mach_latency_hist_seqr::total       451364                      
system.noc_network.Directory_Controller.GETX |     2919870     29.43%     29.43% |     7001827     70.57%    100.00%
system.noc_network.Directory_Controller.GETX::total      9921697                      
system.noc_network.Directory_Controller.I.GETX |      387351     85.82%     85.82% |       64013     14.18%    100.00%
system.noc_network.Directory_Controller.I.GETX::total       451364                      
system.noc_network.Directory_Controller.IM.Memory_Data |      387351     85.82%     85.82% |       64013     14.18%    100.00%
system.noc_network.Directory_Controller.IM.Memory_Data::total       451364                      
system.noc_network.Directory_Controller.M.GETX |     2532519     26.74%     26.74% |     6937814     73.26%    100.00%
system.noc_network.Directory_Controller.M.GETX::total      9470333                      
system.noc_network.Directory_Controller.M.PUTX |      387112     85.92%     85.92% |       63430     14.08%    100.00%
system.noc_network.Directory_Controller.M.PUTX::total       450542                      
system.noc_network.Directory_Controller.M.PUTX_NotOwner |           0      0.00%      0.00% |           1    100.00%    100.00%
system.noc_network.Directory_Controller.M.PUTX_NotOwner::total            1                      
system.noc_network.Directory_Controller.MI.Memory_Ack |      387112     85.92%     85.92% |       63430     14.08%    100.00%
system.noc_network.Directory_Controller.MI.Memory_Ack::total       450542                      
system.noc_network.Directory_Controller.Memory_Ack |      387112     85.92%     85.92% |       63430     14.08%    100.00%
system.noc_network.Directory_Controller.Memory_Ack::total       450542                      
system.noc_network.Directory_Controller.Memory_Data |      387351     85.82%     85.82% |       64013     14.18%    100.00%
system.noc_network.Directory_Controller.Memory_Data::total       451364                      
system.noc_network.Directory_Controller.PUTX |      387112     85.92%     85.92% |       63430     14.08%    100.00%
system.noc_network.Directory_Controller.PUTX::total       450542                      
system.noc_network.Directory_Controller.PUTX_NotOwner |           0      0.00%      0.00% |           1    100.00%    100.00%
system.noc_network.Directory_Controller.PUTX_NotOwner::total            1                      
system.noc_network.IFETCH.Directory.miss_type_mach_latency_hist_seqr::bucket_size            8                      
system.noc_network.IFETCH.Directory.miss_type_mach_latency_hist_seqr::max_bucket           79                      
system.noc_network.IFETCH.Directory.miss_type_mach_latency_hist_seqr::samples         3259                      
system.noc_network.IFETCH.Directory.miss_type_mach_latency_hist_seqr::mean     0.044185                      
system.noc_network.IFETCH.Directory.miss_type_mach_latency_hist_seqr::stdev     1.786110                      
system.noc_network.IFETCH.Directory.miss_type_mach_latency_hist_seqr |        3257     99.94%     99.94% |           0      0.00%     99.94% |           0      0.00%     99.94% |           0      0.00%     99.94% |           0      0.00%     99.94% |           0      0.00%     99.94% |           0      0.00%     99.94% |           0      0.00%     99.94% |           1      0.03%     99.97% |           1      0.03%    100.00%
system.noc_network.IFETCH.Directory.miss_type_mach_latency_hist_seqr::total         3259                      
system.noc_network.IFETCH.L1Cache.miss_type_mach_latency_hist_seqr::bucket_size            1                      
system.noc_network.IFETCH.L1Cache.miss_type_mach_latency_hist_seqr::max_bucket            9                      
system.noc_network.IFETCH.L1Cache.miss_type_mach_latency_hist_seqr::samples      6928617                      
system.noc_network.IFETCH.L1Cache.miss_type_mach_latency_hist_seqr |     6928617    100.00%    100.00% |           0      0.00%    100.00% |           0      0.00%    100.00% |           0      0.00%    100.00% |           0      0.00%    100.00% |           0      0.00%    100.00% |           0      0.00%    100.00% |           0      0.00%    100.00% |           0      0.00%    100.00% |           0      0.00%    100.00%
system.noc_network.IFETCH.L1Cache.miss_type_mach_latency_hist_seqr::total      6928617                      
system.noc_network.IFETCH.hit_latency_hist_seqr::bucket_size            1                      
system.noc_network.IFETCH.hit_latency_hist_seqr::max_bucket            9                      
system.noc_network.IFETCH.hit_latency_hist_seqr::samples    463552067                      
system.noc_network.IFETCH.hit_latency_hist_seqr |   463552067    100.00%    100.00% |           0      0.00%    100.00% |           0      0.00%    100.00% |           0      0.00%    100.00% |           0      0.00%    100.00% |           0      0.00%    100.00% |           0      0.00%    100.00% |           0      0.00%    100.00% |           0      0.00%    100.00% |           0      0.00%    100.00%
system.noc_network.IFETCH.hit_latency_hist_seqr::total    463552067                      
system.noc_network.IFETCH.latency_hist_seqr::bucket_size            8                      
system.noc_network.IFETCH.latency_hist_seqr::max_bucket           79                      
system.noc_network.IFETCH.latency_hist_seqr::samples    470483943                      
system.noc_network.IFETCH.latency_hist_seqr::mean     0.000000                      
system.noc_network.IFETCH.latency_hist_seqr::stdev     0.004702                      
system.noc_network.IFETCH.latency_hist_seqr |   470483941    100.00%    100.00% |           0      0.00%    100.00% |           0      0.00%    100.00% |           0      0.00%    100.00% |           0      0.00%    100.00% |           0      0.00%    100.00% |           0      0.00%    100.00% |           0      0.00%    100.00% |           1      0.00%    100.00% |           1      0.00%    100.00%
system.noc_network.IFETCH.latency_hist_seqr::total    470483943                      
system.noc_network.IFETCH.miss_latency_hist_seqr::bucket_size            8                      
system.noc_network.IFETCH.miss_latency_hist_seqr::max_bucket           79                      
system.noc_network.IFETCH.miss_latency_hist_seqr::samples      6931876                      
system.noc_network.IFETCH.miss_latency_hist_seqr::mean     0.000021                      
system.noc_network.IFETCH.miss_latency_hist_seqr::stdev     0.038734                      
system.noc_network.IFETCH.miss_latency_hist_seqr |     6931874    100.00%    100.00% |           0      0.00%    100.00% |           0      0.00%    100.00% |           0      0.00%    100.00% |           0      0.00%    100.00% |           0      0.00%    100.00% |           0      0.00%    100.00% |           0      0.00%    100.00% |           1      0.00%    100.00% |           1      0.00%    100.00%
system.noc_network.IFETCH.miss_latency_hist_seqr::total      6931876                      
system.noc_network.L1Cache.incomplete_times_seqr      9470333                      
system.noc_network.L1Cache.miss_mach_latency_hist_seqr::bucket_size            1                      
system.noc_network.L1Cache.miss_mach_latency_hist_seqr::max_bucket            9                      
system.noc_network.L1Cache.miss_mach_latency_hist_seqr::samples      9470333                      
system.noc_network.L1Cache.miss_mach_latency_hist_seqr |     9470333    100.00%    100.00% |           0      0.00%    100.00% |           0      0.00%    100.00% |           0      0.00%    100.00% |           0      0.00%    100.00% |           0      0.00%    100.00% |           0      0.00%    100.00% |           0      0.00%    100.00% |           0      0.00%    100.00% |           0      0.00%    100.00%
system.noc_network.L1Cache.miss_mach_latency_hist_seqr::total      9470333                      
system.noc_network.L1Cache_Controller.Data |      440394      4.44%      4.44% |        1550      0.02%      4.45% |     4735741     47.73%     52.19% |     4744012     47.81%    100.00%
system.noc_network.L1Cache_Controller.Data::total      9921697                      
system.noc_network.L1Cache_Controller.Fwd_GETX |           0      0.00%      0.00% |         186      0.00%      0.00% |     4735143     50.00%     50.00% |     4735004     50.00%    100.00%
system.noc_network.L1Cache_Controller.Fwd_GETX::total      9470333                      
system.noc_network.L1Cache_Controller.I.Ifetch |        1763      0.03%      0.03% |         969      0.01%      0.04% |     3464489     49.98%     50.02% |     3464655     49.98%    100.00%
system.noc_network.L1Cache_Controller.I.Ifetch::total      6931876                      
system.noc_network.L1Cache_Controller.I.Load |      409539     13.84%     13.84% |         311      0.01%     13.85% |     1271003     42.95%     56.80% |     1278567     43.20%    100.00%
system.noc_network.L1Cache_Controller.I.Load::total      2959420                      
system.noc_network.L1Cache_Controller.I.Replacement |           0      0.00%      0.00% |          48      6.68%      6.68% |         357     49.65%     56.33% |         314     43.67%    100.00%
system.noc_network.L1Cache_Controller.I.Replacement::total          719                      
system.noc_network.L1Cache_Controller.I.Store |       29092     95.69%     95.69% |         270      0.89%     96.58% |         249      0.82%     97.40% |         790      2.60%    100.00%
system.noc_network.L1Cache_Controller.I.Store::total        30401                      
system.noc_network.L1Cache_Controller.II.Writeback_Nack |           0      0.00%      0.00% |           0      0.00%      0.00% |           0      0.00%      0.00% |           1    100.00%    100.00%
system.noc_network.L1Cache_Controller.II.Writeback_Nack::total            1                      
system.noc_network.L1Cache_Controller.IM.Data |       29092     95.69%     95.69% |         270      0.89%     96.58% |         249      0.82%     97.40% |         790      2.60%    100.00%
system.noc_network.L1Cache_Controller.IM.Data::total        30401                      
system.noc_network.L1Cache_Controller.IS.Data |      411302      4.16%      4.16% |        1280      0.01%      4.17% |     4735492     47.88%     52.05% |     4743222     47.95%    100.00%
system.noc_network.L1Cache_Controller.IS.Data::total      9891296                      
system.noc_network.L1Cache_Controller.Ifetch |   398905725     84.79%     84.79% |       29984      0.01%     84.79% |    33485411      7.12%     91.91% |    38062823      8.09%    100.00%
system.noc_network.L1Cache_Controller.Ifetch::total    470483943                      
system.noc_network.L1Cache_Controller.Load |    94425976     81.85%     81.85% |        4824      0.00%     81.85% |    10089198      8.75%     90.60% |    10845438      9.40%    100.00%
system.noc_network.L1Cache_Controller.Load::total    115365436                      
system.noc_network.L1Cache_Controller.M.Fwd_GETX |           0      0.00%      0.00% |         186      0.00%      0.00% |     4735143     50.00%     50.00% |     4735003     50.00%    100.00%
system.noc_network.L1Cache_Controller.M.Fwd_GETX::total      9470332                      
system.noc_network.L1Cache_Controller.M.Ifetch |   398903962     86.05%     86.05% |       29015      0.01%     86.06% |    30020922      6.48%     92.54% |    34598168      7.46%    100.00%
system.noc_network.L1Cache_Controller.M.Ifetch::total    463552067                      
system.noc_network.L1Cache_Controller.M.Load |    94016437     83.64%     83.64% |        4513      0.00%     83.64% |     8818195      7.84%     91.49% |     9566871      8.51%    100.00%
system.noc_network.L1Cache_Controller.M.Load::total    112406016                      
system.noc_network.L1Cache_Controller.M.Replacement |      440138     97.69%     97.69% |        1113      0.25%     97.94% |         513      0.11%     98.05% |        8779      1.95%    100.00%
system.noc_network.L1Cache_Controller.M.Replacement::total       450543                      
system.noc_network.L1Cache_Controller.M.Store |    17494995     50.40%     50.40% |        4465      0.01%     50.41% |     8356468     24.07%     74.49% |     8855652     25.51%    100.00%
system.noc_network.L1Cache_Controller.M.Store::total     34711580                      
system.noc_network.L1Cache_Controller.MI.Fwd_GETX |           0      0.00%      0.00% |           0      0.00%      0.00% |           0      0.00%      0.00% |           1    100.00%    100.00%
system.noc_network.L1Cache_Controller.MI.Fwd_GETX::total            1                      
system.noc_network.L1Cache_Controller.MI.Writeback_Ack |      440138     97.69%     97.69% |        1113      0.25%     97.94% |         513      0.11%     98.05% |        8778      1.95%    100.00%
system.noc_network.L1Cache_Controller.MI.Writeback_Ack::total       450542                      
system.noc_network.L1Cache_Controller.Replacement |      440138     97.53%     97.53% |        1161      0.26%     97.79% |         870      0.19%     97.98% |        9093      2.02%    100.00%
system.noc_network.L1Cache_Controller.Replacement::total       451262                      
system.noc_network.L1Cache_Controller.Store |    17524087     50.44%     50.44% |        4735      0.01%     50.45% |     8356717     24.05%     74.51% |     8856442     25.49%    100.00%
system.noc_network.L1Cache_Controller.Store::total     34741981                      
system.noc_network.L1Cache_Controller.Writeback_Ack |      440138     97.69%     97.69% |        1113      0.25%     97.94% |         513      0.11%     98.05% |        8778      1.95%    100.00%
system.noc_network.L1Cache_Controller.Writeback_Ack::total       450542                      
system.noc_network.L1Cache_Controller.Writeback_Nack |           0      0.00%      0.00% |           0      0.00%      0.00% |           0      0.00%      0.00% |           1    100.00%    100.00%
system.noc_network.L1Cache_Controller.Writeback_Nack::total            1                      
system.noc_network.LD.Directory.miss_type_mach_latency_hist_seqr::bucket_size            1                      
system.noc_network.LD.Directory.miss_type_mach_latency_hist_seqr::max_bucket            9                      
system.noc_network.LD.Directory.miss_type_mach_latency_hist_seqr::samples       417889                      
system.noc_network.LD.Directory.miss_type_mach_latency_hist_seqr |      417889    100.00%    100.00% |           0      0.00%    100.00% |           0      0.00%    100.00% |           0      0.00%    100.00% |           0      0.00%    100.00% |           0      0.00%    100.00% |           0      0.00%    100.00% |           0      0.00%    100.00% |           0      0.00%    100.00% |           0      0.00%    100.00%
system.noc_network.LD.Directory.miss_type_mach_latency_hist_seqr::total       417889                      
system.noc_network.LD.L1Cache.miss_type_mach_latency_hist_seqr::bucket_size            1                      
system.noc_network.LD.L1Cache.miss_type_mach_latency_hist_seqr::max_bucket            9                      
system.noc_network.LD.L1Cache.miss_type_mach_latency_hist_seqr::samples      2541531                      
system.noc_network.LD.L1Cache.miss_type_mach_latency_hist_seqr |     2541531    100.00%    100.00% |           0      0.00%    100.00% |           0      0.00%    100.00% |           0      0.00%    100.00% |           0      0.00%    100.00% |           0      0.00%    100.00% |           0      0.00%    100.00% |           0      0.00%    100.00% |           0      0.00%    100.00% |           0      0.00%    100.00%
system.noc_network.LD.L1Cache.miss_type_mach_latency_hist_seqr::total      2541531                      
system.noc_network.LD.hit_latency_hist_seqr::bucket_size            1                      
system.noc_network.LD.hit_latency_hist_seqr::max_bucket            9                      
system.noc_network.LD.hit_latency_hist_seqr::samples    112406016                      
system.noc_network.LD.hit_latency_hist_seqr |   112406016    100.00%    100.00% |           0      0.00%    100.00% |           0      0.00%    100.00% |           0      0.00%    100.00% |           0      0.00%    100.00% |           0      0.00%    100.00% |           0      0.00%    100.00% |           0      0.00%    100.00% |           0      0.00%    100.00% |           0      0.00%    100.00%
system.noc_network.LD.hit_latency_hist_seqr::total    112406016                      
system.noc_network.LD.latency_hist_seqr::bucket_size            1                      
system.noc_network.LD.latency_hist_seqr::max_bucket            9                      
system.noc_network.LD.latency_hist_seqr::samples    115365436                      
system.noc_network.LD.latency_hist_seqr  |   115365436    100.00%    100.00% |           0      0.00%    100.00% |           0      0.00%    100.00% |           0      0.00%    100.00% |           0      0.00%    100.00% |           0      0.00%    100.00% |           0      0.00%    100.00% |           0      0.00%    100.00% |           0      0.00%    100.00% |           0      0.00%    100.00%
system.noc_network.LD.latency_hist_seqr::total    115365436                      
system.noc_network.LD.miss_latency_hist_seqr::bucket_size            1                      
system.noc_network.LD.miss_latency_hist_seqr::max_bucket            9                      
system.noc_network.LD.miss_latency_hist_seqr::samples      2959420                      
system.noc_network.LD.miss_latency_hist_seqr |     2959420    100.00%    100.00% |           0      0.00%    100.00% |           0      0.00%    100.00% |           0      0.00%    100.00% |           0      0.00%    100.00% |           0      0.00%    100.00% |           0      0.00%    100.00% |           0      0.00%    100.00% |           0      0.00%    100.00% |           0      0.00%    100.00%
system.noc_network.LD.miss_latency_hist_seqr::total      2959420                      
system.noc_network.Locked_RMW_Read.Directory.miss_type_mach_latency_hist_seqr::bucket_size            1                      
system.noc_network.Locked_RMW_Read.Directory.miss_type_mach_latency_hist_seqr::max_bucket            9                      
system.noc_network.Locked_RMW_Read.Directory.miss_type_mach_latency_hist_seqr::samples           12                      
system.noc_network.Locked_RMW_Read.Directory.miss_type_mach_latency_hist_seqr |          12    100.00%    100.00% |           0      0.00%    100.00% |           0      0.00%    100.00% |           0      0.00%    100.00% |           0      0.00%    100.00% |           0      0.00%    100.00% |           0      0.00%    100.00% |           0      0.00%    100.00% |           0      0.00%    100.00% |           0      0.00%    100.00%
system.noc_network.Locked_RMW_Read.Directory.miss_type_mach_latency_hist_seqr::total           12                      
system.noc_network.Locked_RMW_Read.L1Cache.miss_type_mach_latency_hist_seqr::bucket_size            1                      
system.noc_network.Locked_RMW_Read.L1Cache.miss_type_mach_latency_hist_seqr::max_bucket            9                      
system.noc_network.Locked_RMW_Read.L1Cache.miss_type_mach_latency_hist_seqr::samples           33                      
system.noc_network.Locked_RMW_Read.L1Cache.miss_type_mach_latency_hist_seqr |          33    100.00%    100.00% |           0      0.00%    100.00% |           0      0.00%    100.00% |           0      0.00%    100.00% |           0      0.00%    100.00% |           0      0.00%    100.00% |           0      0.00%    100.00% |           0      0.00%    100.00% |           0      0.00%    100.00% |           0      0.00%    100.00%
system.noc_network.Locked_RMW_Read.L1Cache.miss_type_mach_latency_hist_seqr::total           33                      
system.noc_network.Locked_RMW_Read.hit_latency_hist_seqr::bucket_size            1                      
system.noc_network.Locked_RMW_Read.hit_latency_hist_seqr::max_bucket            9                      
system.noc_network.Locked_RMW_Read.hit_latency_hist_seqr::samples          244                      
system.noc_network.Locked_RMW_Read.hit_latency_hist_seqr |         244    100.00%    100.00% |           0      0.00%    100.00% |           0      0.00%    100.00% |           0      0.00%    100.00% |           0      0.00%    100.00% |           0      0.00%    100.00% |           0      0.00%    100.00% |           0      0.00%    100.00% |           0      0.00%    100.00% |           0      0.00%    100.00%
system.noc_network.Locked_RMW_Read.hit_latency_hist_seqr::total          244                      
system.noc_network.Locked_RMW_Read.latency_hist_seqr::bucket_size            1                      
system.noc_network.Locked_RMW_Read.latency_hist_seqr::max_bucket            9                      
system.noc_network.Locked_RMW_Read.latency_hist_seqr::samples          289                      
system.noc_network.Locked_RMW_Read.latency_hist_seqr |         289    100.00%    100.00% |           0      0.00%    100.00% |           0      0.00%    100.00% |           0      0.00%    100.00% |           0      0.00%    100.00% |           0      0.00%    100.00% |           0      0.00%    100.00% |           0      0.00%    100.00% |           0      0.00%    100.00% |           0      0.00%    100.00%
system.noc_network.Locked_RMW_Read.latency_hist_seqr::total          289                      
system.noc_network.Locked_RMW_Read.miss_latency_hist_seqr::bucket_size            1                      
system.noc_network.Locked_RMW_Read.miss_latency_hist_seqr::max_bucket            9                      
system.noc_network.Locked_RMW_Read.miss_latency_hist_seqr::samples           45                      
system.noc_network.Locked_RMW_Read.miss_latency_hist_seqr |          45    100.00%    100.00% |           0      0.00%    100.00% |           0      0.00%    100.00% |           0      0.00%    100.00% |           0      0.00%    100.00% |           0      0.00%    100.00% |           0      0.00%    100.00% |           0      0.00%    100.00% |           0      0.00%    100.00% |           0      0.00%    100.00%
system.noc_network.Locked_RMW_Read.miss_latency_hist_seqr::total           45                      
system.noc_network.Locked_RMW_Write.hit_latency_hist_seqr::bucket_size            1                      
system.noc_network.Locked_RMW_Write.hit_latency_hist_seqr::max_bucket            9                      
system.noc_network.Locked_RMW_Write.hit_latency_hist_seqr::samples          289                      
system.noc_network.Locked_RMW_Write.hit_latency_hist_seqr |         289    100.00%    100.00% |           0      0.00%    100.00% |           0      0.00%    100.00% |           0      0.00%    100.00% |           0      0.00%    100.00% |           0      0.00%    100.00% |           0      0.00%    100.00% |           0      0.00%    100.00% |           0      0.00%    100.00% |           0      0.00%    100.00%
system.noc_network.Locked_RMW_Write.hit_latency_hist_seqr::total          289                      
system.noc_network.Locked_RMW_Write.latency_hist_seqr::bucket_size            1                      
system.noc_network.Locked_RMW_Write.latency_hist_seqr::max_bucket            9                      
system.noc_network.Locked_RMW_Write.latency_hist_seqr::samples          289                      
system.noc_network.Locked_RMW_Write.latency_hist_seqr |         289    100.00%    100.00% |           0      0.00%    100.00% |           0      0.00%    100.00% |           0      0.00%    100.00% |           0      0.00%    100.00% |           0      0.00%    100.00% |           0      0.00%    100.00% |           0      0.00%    100.00% |           0      0.00%    100.00% |           0      0.00%    100.00%
system.noc_network.Locked_RMW_Write.latency_hist_seqr::total          289                      
system.noc_network.RMW_Read.Directory.miss_type_mach_latency_hist_seqr::bucket_size            1                      
system.noc_network.RMW_Read.Directory.miss_type_mach_latency_hist_seqr::max_bucket            9                      
system.noc_network.RMW_Read.Directory.miss_type_mach_latency_hist_seqr::samples          110                      
system.noc_network.RMW_Read.Directory.miss_type_mach_latency_hist_seqr |         110    100.00%    100.00% |           0      0.00%    100.00% |           0      0.00%    100.00% |           0      0.00%    100.00% |           0      0.00%    100.00% |           0      0.00%    100.00% |           0      0.00%    100.00% |           0      0.00%    100.00% |           0      0.00%    100.00% |           0      0.00%    100.00%
system.noc_network.RMW_Read.Directory.miss_type_mach_latency_hist_seqr::total          110                      
system.noc_network.RMW_Read.L1Cache.miss_type_mach_latency_hist_seqr::bucket_size            1                      
system.noc_network.RMW_Read.L1Cache.miss_type_mach_latency_hist_seqr::max_bucket            9                      
system.noc_network.RMW_Read.L1Cache.miss_type_mach_latency_hist_seqr::samples            1                      
system.noc_network.RMW_Read.L1Cache.miss_type_mach_latency_hist_seqr::stdev          nan                      
system.noc_network.RMW_Read.L1Cache.miss_type_mach_latency_hist_seqr |           1    100.00%    100.00% |           0      0.00%    100.00% |           0      0.00%    100.00% |           0      0.00%    100.00% |           0      0.00%    100.00% |           0      0.00%    100.00% |           0      0.00%    100.00% |           0      0.00%    100.00% |           0      0.00%    100.00% |           0      0.00%    100.00%
system.noc_network.RMW_Read.L1Cache.miss_type_mach_latency_hist_seqr::total            1                      
system.noc_network.RMW_Read.hit_latency_hist_seqr::bucket_size            1                      
system.noc_network.RMW_Read.hit_latency_hist_seqr::max_bucket            9                      
system.noc_network.RMW_Read.hit_latency_hist_seqr::samples      5100657                      
system.noc_network.RMW_Read.hit_latency_hist_seqr |     5100657    100.00%    100.00% |           0      0.00%    100.00% |           0      0.00%    100.00% |           0      0.00%    100.00% |           0      0.00%    100.00% |           0      0.00%    100.00% |           0      0.00%    100.00% |           0      0.00%    100.00% |           0      0.00%    100.00% |           0      0.00%    100.00%
system.noc_network.RMW_Read.hit_latency_hist_seqr::total      5100657                      
system.noc_network.RMW_Read.latency_hist_seqr::bucket_size            1                      
system.noc_network.RMW_Read.latency_hist_seqr::max_bucket            9                      
system.noc_network.RMW_Read.latency_hist_seqr::samples      5100768                      
system.noc_network.RMW_Read.latency_hist_seqr |     5100768    100.00%    100.00% |           0      0.00%    100.00% |           0      0.00%    100.00% |           0      0.00%    100.00% |           0      0.00%    100.00% |           0      0.00%    100.00% |           0      0.00%    100.00% |           0      0.00%    100.00% |           0      0.00%    100.00% |           0      0.00%    100.00%
system.noc_network.RMW_Read.latency_hist_seqr::total      5100768                      
system.noc_network.RMW_Read.miss_latency_hist_seqr::bucket_size            1                      
system.noc_network.RMW_Read.miss_latency_hist_seqr::max_bucket            9                      
system.noc_network.RMW_Read.miss_latency_hist_seqr::samples          111                      
system.noc_network.RMW_Read.miss_latency_hist_seqr |         111    100.00%    100.00% |           0      0.00%    100.00% |           0      0.00%    100.00% |           0      0.00%    100.00% |           0      0.00%    100.00% |           0      0.00%    100.00% |           0      0.00%    100.00% |           0      0.00%    100.00% |           0      0.00%    100.00% |           0      0.00%    100.00%
system.noc_network.RMW_Read.miss_latency_hist_seqr::total          111                      
system.noc_network.ST.Directory.miss_type_mach_latency_hist_seqr::bucket_size            1                      
system.noc_network.ST.Directory.miss_type_mach_latency_hist_seqr::max_bucket            9                      
system.noc_network.ST.Directory.miss_type_mach_latency_hist_seqr::samples        30094                      
system.noc_network.ST.Directory.miss_type_mach_latency_hist_seqr |       30094    100.00%    100.00% |           0      0.00%    100.00% |           0      0.00%    100.00% |           0      0.00%    100.00% |           0      0.00%    100.00% |           0      0.00%    100.00% |           0      0.00%    100.00% |           0      0.00%    100.00% |           0      0.00%    100.00% |           0      0.00%    100.00%
system.noc_network.ST.Directory.miss_type_mach_latency_hist_seqr::total        30094                      
system.noc_network.ST.L1Cache.miss_type_mach_latency_hist_seqr::bucket_size            1                      
system.noc_network.ST.L1Cache.miss_type_mach_latency_hist_seqr::max_bucket            9                      
system.noc_network.ST.L1Cache.miss_type_mach_latency_hist_seqr::samples          151                      
system.noc_network.ST.L1Cache.miss_type_mach_latency_hist_seqr |         151    100.00%    100.00% |           0      0.00%    100.00% |           0      0.00%    100.00% |           0      0.00%    100.00% |           0      0.00%    100.00% |           0      0.00%    100.00% |           0      0.00%    100.00% |           0      0.00%    100.00% |           0      0.00%    100.00% |           0      0.00%    100.00%
system.noc_network.ST.L1Cache.miss_type_mach_latency_hist_seqr::total          151                      
system.noc_network.ST.hit_latency_hist_seqr::bucket_size            1                      
system.noc_network.ST.hit_latency_hist_seqr::max_bucket            9                      
system.noc_network.ST.hit_latency_hist_seqr::samples     29610390                      
system.noc_network.ST.hit_latency_hist_seqr |    29610390    100.00%    100.00% |           0      0.00%    100.00% |           0      0.00%    100.00% |           0      0.00%    100.00% |           0      0.00%    100.00% |           0      0.00%    100.00% |           0      0.00%    100.00% |           0      0.00%    100.00% |           0      0.00%    100.00% |           0      0.00%    100.00%
system.noc_network.ST.hit_latency_hist_seqr::total     29610390                      
system.noc_network.ST.latency_hist_seqr::bucket_size            1                      
system.noc_network.ST.latency_hist_seqr::max_bucket            9                      
system.noc_network.ST.latency_hist_seqr::samples     29640635                      
system.noc_network.ST.latency_hist_seqr  |    29640635    100.00%    100.00% |           0      0.00%    100.00% |           0      0.00%    100.00% |           0      0.00%    100.00% |           0      0.00%    100.00% |           0      0.00%    100.00% |           0      0.00%    100.00% |           0      0.00%    100.00% |           0      0.00%    100.00% |           0      0.00%    100.00%
system.noc_network.ST.latency_hist_seqr::total     29640635                      
system.noc_network.ST.miss_latency_hist_seqr::bucket_size            1                      
system.noc_network.ST.miss_latency_hist_seqr::max_bucket            9                      
system.noc_network.ST.miss_latency_hist_seqr::samples        30245                      
system.noc_network.ST.miss_latency_hist_seqr |       30245    100.00%    100.00% |           0      0.00%    100.00% |           0      0.00%    100.00% |           0      0.00%    100.00% |           0      0.00%    100.00% |           0      0.00%    100.00% |           0      0.00%    100.00% |           0      0.00%    100.00% |           0      0.00%    100.00% |           0      0.00%    100.00%
system.noc_network.ST.miss_latency_hist_seqr::total        30245                      
system.noc_network.delayHist::bucket_size            4                       # delay histogram for all message
system.noc_network.delayHist::max_bucket           39                       # delay histogram for all message
system.noc_network.delayHist::samples        19842573                       # delay histogram for all message
system.noc_network.delayHist::mean           9.086242                       # delay histogram for all message
system.noc_network.delayHist::gmean          8.806179                       # delay histogram for all message
system.noc_network.delayHist::stdev          2.182117                       # delay histogram for all message
system.noc_network.delayHist             |           0      0.00%      0.00% |     4743667     23.91%     23.91% |    14513145     73.14%     97.05% |      584968      2.95%    100.00% |         791      0.00%    100.00% |           2      0.00%    100.00% |           0      0.00%    100.00% |           0      0.00%    100.00% |           0      0.00%    100.00% |           0      0.00%    100.00% # delay histogram for all message
system.noc_network.delayHist::total          19842573                       # delay histogram for all message
system.noc_network.delayVCHist.vnet_1::bucket_size            4                       # delay histogram for vnet_1
system.noc_network.delayVCHist.vnet_1::max_bucket           39                       # delay histogram for vnet_1
system.noc_network.delayVCHist.vnet_1::samples      9921697                       # delay histogram for vnet_1
system.noc_network.delayVCHist.vnet_1::mean    11.115054                       # delay histogram for vnet_1
system.noc_network.delayVCHist.vnet_1::gmean    11.105268                       # delay histogram for vnet_1
system.noc_network.delayVCHist.vnet_1::stdev     0.497872                       # delay histogram for vnet_1
system.noc_network.delayVCHist.vnet_1    |           0      0.00%      0.00% |           0      0.00%      0.00% |     9335953     94.10%     94.10% |      584951      5.90%     99.99% |         791      0.01%    100.00% |           2      0.00%    100.00% |           0      0.00%    100.00% |           0      0.00%    100.00% |           0      0.00%    100.00% |           0      0.00%    100.00% # delay histogram for vnet_1
system.noc_network.delayVCHist.vnet_1::total      9921697                       # delay histogram for vnet_1
system.noc_network.delayVCHist.vnet_2::bucket_size            2                       # delay histogram for vnet_2
system.noc_network.delayVCHist.vnet_2::max_bucket           19                       # delay histogram for vnet_2
system.noc_network.delayVCHist.vnet_2::samples      9920876                       # delay histogram for vnet_2
system.noc_network.delayVCHist.vnet_2::mean     7.057263                       # delay histogram for vnet_2
system.noc_network.delayVCHist.vnet_2::gmean     6.982929                       # delay histogram for vnet_2
system.noc_network.delayVCHist.vnet_2::stdev     1.021073                       # delay histogram for vnet_2
system.noc_network.delayVCHist.vnet_2    |           0      0.00%      0.00% |           0      0.00%      0.00% |           0      0.00%      0.00% |     4743667     47.82%     47.82% |     5123457     51.64%     99.46% |       53735      0.54%    100.00% |          17      0.00%    100.00% |           0      0.00%    100.00% |           0      0.00%    100.00% |           0      0.00%    100.00% # delay histogram for vnet_2
system.noc_network.delayVCHist.vnet_2::total      9920876                       # delay histogram for vnet_2
system.noc_network.hit_latency_hist_seqr::bucket_size            1                      
system.noc_network.hit_latency_hist_seqr::max_bucket            9                      
system.noc_network.hit_latency_hist_seqr::samples    610669663                      
system.noc_network.hit_latency_hist_seqr |   610669663    100.00%    100.00% |           0      0.00%    100.00% |           0      0.00%    100.00% |           0      0.00%    100.00% |           0      0.00%    100.00% |           0      0.00%    100.00% |           0      0.00%    100.00% |           0      0.00%    100.00% |           0      0.00%    100.00% |           0      0.00%    100.00%
[...]
system.noc_network.socket_controllers5.mem_ctrl.rdPerTurnAround::32-47           64      1.93%     97.04% # Reads before turning the bus around for writes
system.noc_network.socket_controllers5.mem_ctrl.rdPerTurnAround::48-63           22      0.66%     97.70% # Reads before turning the bus around for writes
system.noc_network.socket_controllers5.mem_ctrl.rdPerTurnAround::64-79           48      1.45%     99.15% # Reads before turning the bus around for writes
system.noc_network.socket_controllers5.mem_ctrl.rdPerTurnAround::80-95           27      0.82%     99.97% # Reads before turning the bus around for writes
system.noc_network.socket_controllers5.mem_ctrl.rdPerTurnAround::512-527            1      0.03%    100.00% # Reads before turning the bus around for writes
system.noc_network.socket_controllers5.mem_ctrl.rdPerTurnAround::total         3309                       # Reads before turning the bus around for writes
system.noc_network.socket_controllers5.mem_ctrl.wrPerTurnAround::samples         3309                       # Writes before turning the bus around for reads
system.noc_network.socket_controllers5.mem_ctrl.wrPerTurnAround::mean    17.497431                       # Writes before turning the bus around for reads
system.noc_network.socket_controllers5.mem_ctrl.wrPerTurnAround::gmean    17.475035                       # Writes before turning the bus around for reads
system.noc_network.socket_controllers5.mem_ctrl.wrPerTurnAround::stdev     0.868157                       # Writes before turning the bus around for reads
system.noc_network.socket_controllers5.mem_ctrl.wrPerTurnAround::16          832     25.14%     25.14% # Writes before turning the bus around for reads
system.noc_network.socket_controllers5.mem_ctrl.wrPerTurnAround::18         2476     74.83%     99.97% # Writes before turning the bus around for reads
system.noc_network.socket_controllers5.mem_ctrl.wrPerTurnAround::19            1      0.03%    100.00% # Writes before turning the bus around for reads
system.noc_network.socket_controllers5.mem_ctrl.wrPerTurnAround::total         3309                       # Writes before turning the bus around for reads
system.noc_network.socket_controllers5.mem_ctrl.bytesReadWrQ       572352                       # Total number of bytes read from write queue
system.noc_network.socket_controllers5.mem_ctrl.bytesReadSys      4096832                       # Total read bytes from the system interface side
system.noc_network.socket_controllers5.mem_ctrl.bytesWrittenSys      4059520                       # Total written bytes from the system interface side
system.noc_network.socket_controllers5.mem_ctrl.avgRdBWSys         3.86                       # Average system read bandwidth in MiByte/s
system.noc_network.socket_controllers5.mem_ctrl.avgWrBWSys         3.83                       # Average system write bandwidth in MiByte/s
system.noc_network.socket_controllers5.mem_ctrl.totGap 1060444689000                       # Total gap between requests
system.noc_network.socket_controllers5.mem_ctrl.avgGap   8320933.19                       # Average gap between requests
system.noc_network.socket_controllers5.mem_ctrl.requestorReadBytes::.noc_network.socket_controllers5      3524480                       # Per-requestor bytes read from memory
system.noc_network.socket_controllers5.mem_ctrl.requestorWriteBytes::.noc_network.socket_controllers5      3705536                       # Per-requestor bytes write to memory
system.noc_network.socket_controllers5.mem_ctrl.requestorReadRate::.noc_network.socket_controllers5 3323586.589632511605                       # Per-requestor bytes read from memory rate (Bytes/sec)
system.noc_network.socket_controllers5.mem_ctrl.requestorWriteRate::.noc_network.socket_controllers5 3494322.497787049040                       # Per-requestor bytes write to memory rate (Bytes/sec)
system.noc_network.socket_controllers5.mem_ctrl.requestorReadAccesses::.noc_network.socket_controllers5        64013                       # Per-requestor read serviced memory accesses
system.noc_network.socket_controllers5.mem_ctrl.requestorWriteAccesses::.noc_network.socket_controllers5        63430                       # Per-requestor write serviced memory accesses
system.noc_network.socket_controllers5.mem_ctrl.requestorReadTotalLat::.noc_network.socket_controllers5   1029786584                       # Per-requestor read total memory access latency
system.noc_network.socket_controllers5.mem_ctrl.requestorWriteTotalLat::.noc_network.socket_controllers5 59008654151680                       # Per-requestor write total memory access latency
system.noc_network.socket_controllers5.mem_ctrl.requestorReadAvgLat::.noc_network.socket_controllers5     16087.15                       # Per-requestor read average memory access latency
system.noc_network.socket_controllers5.mem_ctrl.requestorWriteAvgLat::.noc_network.socket_controllers5 930295666.90                       # Per-requestor write average memory access latency
system.noc_network.socket_controllers5.mem_ctrl.nvm.bytes_read::.noc_network.socket_controllers5      4096832                       # Number of bytes read from this memory
system.noc_network.socket_controllers5.mem_ctrl.nvm.bytes_read::total      4096832                       # Number of bytes read from this memory
system.noc_network.socket_controllers5.mem_ctrl.nvm.bytes_written::.noc_network.socket_controllers5      4059520                       # Number of bytes written to this memory
system.noc_network.socket_controllers5.mem_ctrl.nvm.bytes_written::total      4059520                       # Number of bytes written to this memory
system.noc_network.socket_controllers5.mem_ctrl.nvm.num_reads::.noc_network.socket_controllers5        64013                       # Number of read requests responded to by this memory
system.noc_network.socket_controllers5.mem_ctrl.nvm.num_reads::total        64013                       # Number of read requests responded to by this memory
system.noc_network.socket_controllers5.mem_ctrl.nvm.num_writes::.noc_network.socket_controllers5        63430                       # Number of write requests responded to by this memory
system.noc_network.socket_controllers5.mem_ctrl.nvm.num_writes::total        63430                       # Number of write requests responded to by this memory
system.noc_network.socket_controllers5.mem_ctrl.nvm.bw_read::.noc_network.socket_controllers5      3863315                       # Total read bandwidth from this memory (bytes/s)
system.noc_network.socket_controllers5.mem_ctrl.nvm.bw_read::total      3863315                       # Total read bandwidth from this memory (bytes/s)
system.noc_network.socket_controllers5.mem_ctrl.nvm.bw_write::.noc_network.socket_controllers5      3828130                       # Write bandwidth from this memory (bytes/s)
system.noc_network.socket_controllers5.mem_ctrl.nvm.bw_write::total      3828130                       # Write bandwidth from this memory (bytes/s)
system.noc_network.socket_controllers5.mem_ctrl.nvm.bw_total::.noc_network.socket_controllers5      7691444                       # Total bandwidth to/from this memory (bytes/s)
system.noc_network.socket_controllers5.mem_ctrl.nvm.bw_total::total      7691444                       # Total bandwidth to/from this memory (bytes/s)
system.noc_network.socket_controllers5.mem_ctrl.nvm.readBursts        55070                       # Number of NVM read bursts
system.noc_network.socket_controllers5.mem_ctrl.nvm.writeBursts        57899                       # Number of NVM write bursts
system.noc_network.socket_controllers5.mem_ctrl.nvm.perBankRdBursts::0         3681                       # Per bank write bursts
system.noc_network.socket_controllers5.mem_ctrl.nvm.perBankRdBursts::1         3368                       # Per bank write bursts
system.noc_network.socket_controllers5.mem_ctrl.nvm.perBankRdBursts::2         3412                       # Per bank write bursts
system.noc_network.socket_controllers5.mem_ctrl.nvm.perBankRdBursts::3         3377                       # Per bank write bursts
system.noc_network.socket_controllers5.mem_ctrl.nvm.perBankRdBursts::4         3502                       # Per bank write bursts
system.noc_network.socket_controllers5.mem_ctrl.nvm.perBankRdBursts::5         3417                       # Per bank write bursts
system.noc_network.socket_controllers5.mem_ctrl.nvm.perBankRdBursts::6         3361                       # Per bank write bursts
system.noc_network.socket_controllers5.mem_ctrl.nvm.perBankRdBursts::7         3445                       # Per bank write bursts
system.noc_network.socket_controllers5.mem_ctrl.nvm.perBankRdBursts::8         3466                       # Per bank write bursts
system.noc_network.socket_controllers5.mem_ctrl.nvm.perBankRdBursts::9         3353                       # Per bank write bursts
system.noc_network.socket_controllers5.mem_ctrl.nvm.perBankRdBursts::10         3335                       # Per bank write bursts
system.noc_network.socket_controllers5.mem_ctrl.nvm.perBankRdBursts::11         3306                       # Per bank write bursts
system.noc_network.socket_controllers5.mem_ctrl.nvm.perBankRdBursts::12         3455                       # Per bank write bursts
system.noc_network.socket_controllers5.mem_ctrl.nvm.perBankRdBursts::13         3580                       # Per bank write bursts
system.noc_network.socket_controllers5.mem_ctrl.nvm.perBankRdBursts::14         3427                       # Per bank write bursts
system.noc_network.socket_controllers5.mem_ctrl.nvm.perBankRdBursts::15         3585                       # Per bank write bursts
system.noc_network.socket_controllers5.mem_ctrl.nvm.perBankWrBursts::0         3933                       # Per bank write bursts
system.noc_network.socket_controllers5.mem_ctrl.nvm.perBankWrBursts::1         3547                       # Per bank write bursts
system.noc_network.socket_controllers5.mem_ctrl.nvm.perBankWrBursts::2         3556                       # Per bank write bursts
system.noc_network.socket_controllers5.mem_ctrl.nvm.perBankWrBursts::3         3526                       # Per bank write bursts
system.noc_network.socket_controllers5.mem_ctrl.nvm.perBankWrBursts::4         3646                       # Per bank write bursts
system.noc_network.socket_controllers5.mem_ctrl.nvm.perBankWrBursts::5         3501                       # Per bank write bursts
system.noc_network.socket_controllers5.mem_ctrl.nvm.perBankWrBursts::6         3549                       # Per bank write bursts
system.noc_network.socket_controllers5.mem_ctrl.nvm.perBankWrBursts::7         3545                       # Per bank write bursts
system.noc_network.socket_controllers5.mem_ctrl.nvm.perBankWrBursts::8         3621                       # Per bank write bursts
system.noc_network.socket_controllers5.mem_ctrl.nvm.perBankWrBursts::9         3518                       # Per bank write bursts
system.noc_network.socket_controllers5.mem_ctrl.nvm.perBankWrBursts::10         3516                       # Per bank write bursts
system.noc_network.socket_controllers5.mem_ctrl.nvm.perBankWrBursts::11         3439                       # Per bank write bursts
system.noc_network.socket_controllers5.mem_ctrl.nvm.perBankWrBursts::12         3543                       # Per bank write bursts
system.noc_network.socket_controllers5.mem_ctrl.nvm.perBankWrBursts::13         4181                       # Per bank write bursts
system.noc_network.socket_controllers5.mem_ctrl.nvm.perBankWrBursts::14         3606                       # Per bank write bursts
system.noc_network.socket_controllers5.mem_ctrl.nvm.perBankWrBursts::15         3672                       # Per bank write bursts
system.noc_network.socket_controllers5.mem_ctrl.nvm.totQLat     66502144                       # Total ticks spent queuing
system.noc_network.socket_controllers5.mem_ctrl.nvm.totBusLat    183493240                       # Total ticks spent in databus transfers
system.noc_network.socket_controllers5.mem_ctrl.nvm.totMemAccLat   1029786584                       # Total ticks spent from burst creation until serviced by the NVM
system.noc_network.socket_controllers5.mem_ctrl.nvm.avgQLat      1207.59                       # Average queueing delay per NVM burst
system.noc_network.socket_controllers5.mem_ctrl.nvm.avgBusLat      3332.00                       # Average bus latency per NVM burst
system.noc_network.socket_controllers5.mem_ctrl.nvm.avgMemAccLat     18699.59                       # Average memory access latency per NVM burst
system.noc_network.socket_controllers5.mem_ctrl.nvm.bytesRead      3524480                       # Total number of bytes read from DRAM
system.noc_network.socket_controllers5.mem_ctrl.nvm.bytesWritten      3705536                       # Total number of bytes written to DRAM
system.noc_network.socket_controllers5.mem_ctrl.nvm.avgRdBW         3.32                       # Average DRAM read bandwidth in MiBytes/s
system.noc_network.socket_controllers5.mem_ctrl.nvm.avgWrBW         3.49                       # Average DRAM write bandwidth in MiBytes/s
system.noc_network.socket_controllers5.mem_ctrl.nvm.peakBW     19207.00                       # Theoretical peak bandwidth in MiByte/s
system.noc_network.socket_controllers5.mem_ctrl.nvm.busUtil         0.04                       # NVM Data bus utilization in percentage
system.noc_network.socket_controllers5.mem_ctrl.nvm.busUtilRead         0.02                       # NVM Data bus read utilization in percentage
system.noc_network.socket_controllers5.mem_ctrl.nvm.busUtilWrite         0.02                       # NVM Data bus write utilization in percentage
system.noc_network.socket_controllers5.mem_ctrl.nvm.pendingReads::samples        55070                       # Reads issued to NVM for which data has not been transferred
system.noc_network.socket_controllers5.mem_ctrl.nvm.pendingReads::mean     0.000345                       # Reads issued to NVM for which data has not been transferred
system.noc_network.socket_controllers5.mem_ctrl.nvm.pendingReads::stdev     0.018572                       # Reads issued to NVM for which data has not been transferred
system.noc_network.socket_controllers5.mem_ctrl.nvm.pendingReads::0        55051     99.97%     99.97% # Reads issued to NVM for which data has not been transferred
system.noc_network.socket_controllers5.mem_ctrl.nvm.pendingReads::1           19      0.03%    100.00% # Reads issued to NVM for which data has not been transferred
system.noc_network.socket_controllers5.mem_ctrl.nvm.pendingReads::total        55070                       # Reads issued to NVM for which data has not been transferred
system.noc_network.socket_controllers5.mem_ctrl.nvm.pendingWrites::samples        57899                       # Number of outstanding writes to NVM
system.noc_network.socket_controllers5.mem_ctrl.nvm.pendingWrites::mean     5.799824                       # Number of outstanding writes to NVM
system.noc_network.socket_controllers5.mem_ctrl.nvm.pendingWrites::gmean     5.231277                       # Number of outstanding writes to NVM
system.noc_network.socket_controllers5.mem_ctrl.nvm.pendingWrites::stdev     1.939177                       # Number of outstanding writes to NVM
system.noc_network.socket_controllers5.mem_ctrl.nvm.pendingWrites::1         3309      5.72%      5.72% # Number of outstanding writes to NVM
system.noc_network.socket_controllers5.mem_ctrl.nvm.pendingWrites::2         3309      5.72%     11.43% # Number of outstanding writes to NVM
system.noc_network.socket_controllers5.mem_ctrl.nvm.pendingWrites::3         3309      5.72%     17.15% # Number of outstanding writes to NVM
system.noc_network.socket_controllers5.mem_ctrl.nvm.pendingWrites::4         3309      5.72%     22.86% # Number of outstanding writes to NVM
system.noc_network.socket_controllers5.mem_ctrl.nvm.pendingWrites::5         3309      5.72%     28.58% # Number of outstanding writes to NVM
system.noc_network.socket_controllers5.mem_ctrl.nvm.pendingWrites::6         3309      5.72%     34.29% # Number of outstanding writes to NVM
system.noc_network.socket_controllers5.mem_ctrl.nvm.pendingWrites::7        38045     65.71%    100.00% # Number of outstanding writes to NVM
system.noc_network.socket_controllers5.mem_ctrl.nvm.pendingWrites::total        57899                       # Number of outstanding writes to NVM
system.noc_network.socket_controllers5.mem_ctrl.nvm.bytesPerBank::samples        46736                       # Bytes read within a bank before loading new bank
system.noc_network.socket_controllers5.mem_ctrl.nvm.bytesPerBank::mean   154.675796                       # Bytes read within a bank before loading new bank
system.noc_network.socket_controllers5.mem_ctrl.nvm.bytesPerBank::gmean   126.817639                       # Bytes read within a bank before loading new bank
system.noc_network.socket_controllers5.mem_ctrl.nvm.bytesPerBank::stdev    96.227422                       # Bytes read within a bank before loading new bank
system.noc_network.socket_controllers5.mem_ctrl.nvm.bytesPerBank::64-67        19734     42.22%     42.22% # Bytes read within a bank before loading new bank
system.noc_network.socket_controllers5.mem_ctrl.nvm.bytesPerBank::128-131         6901     14.77%     56.99% # Bytes read within a bank before loading new bank
system.noc_network.socket_controllers5.mem_ctrl.nvm.bytesPerBank::192-195         4985     10.67%     67.66% # Bytes read within a bank before loading new bank
system.noc_network.socket_controllers5.mem_ctrl.nvm.bytesPerBank::256-259        13507     28.90%     96.56% # Bytes read within a bank before loading new bank
system.noc_network.socket_controllers5.mem_ctrl.nvm.bytesPerBank::320-323          498      1.07%     97.62% # Bytes read within a bank before loading new bank
system.noc_network.socket_controllers5.mem_ctrl.nvm.bytesPerBank::384-387          363      0.78%     98.40% # Bytes read within a bank before loading new bank
system.noc_network.socket_controllers5.mem_ctrl.nvm.bytesPerBank::448-451          288      0.62%     99.02% # Bytes read within a bank before loading new bank
system.noc_network.socket_controllers5.mem_ctrl.nvm.bytesPerBank::512-515          420      0.90%     99.91% # Bytes read within a bank before loading new bank
system.noc_network.socket_controllers5.mem_ctrl.nvm.bytesPerBank::576-579           20      0.04%     99.96% # Bytes read within a bank before loading new bank
system.noc_network.socket_controllers5.mem_ctrl.nvm.bytesPerBank::640-643           12      0.03%     99.98% # Bytes read within a bank before loading new bank
system.noc_network.socket_controllers5.mem_ctrl.nvm.bytesPerBank::704-707            7      0.01%    100.00% # Bytes read within a bank before loading new bank
system.noc_network.socket_controllers5.mem_ctrl.nvm.bytesPerBank::768-771            1      0.00%    100.00% # Bytes read within a bank before loading new bank
system.noc_network.socket_controllers5.mem_ctrl.nvm.bytesPerBank::total        46736                       # Bytes read within a bank before loading new bank
system.noc_network.socket_controllers5.mem_ctrl.nvm.power_state.pwrStateResidencyTicks::UNDEFINED 1060444765000                       # Cumulative time (in ticks) in various power states
system.noc_network.socket_controllers5.mem_ctrl.power_state.pwrStateResidencyTicks::UNDEFINED 1060444765000                       # Cumulative time (in ticks) in various power states
system.noc_network.socket_controllers5.power_state.pwrStateResidencyTicks::UNDEFINED 1060444765000                       # Cumulative time (in ticks) in various power states
system.noc_network.sys_port_proxy.power_state.pwrStateResidencyTicks::UNDEFINED 1060444765000                       # Cumulative time (in ticks) in various power states
system.voltage_domain.voltage                       1                       # Voltage in Volts

---------- End Simulation Statistics   ----------
