
---------- Begin Simulation Statistics ----------
final_tick                               1024958001000                       # Number of ticks from beginning of simulation (restored from checkpoints and never reset)
host_inst_rate                                1003665                       # Simulator instruction rate (inst/s)
host_mem_usage                                1171876                       # Number of bytes of host memory used
host_op_rate                                  1664050                       # Simulator op (including micro ops) rate (op/s)
host_seconds                                   273.23                       # Real time elapsed on the host
host_tick_rate                             3751197217                       # Simulator tick rate (ticks/s)
sim_freq                                 1000000000000                       # Frequency of simulated ticks
sim_insts                                   274236100                       # Number of instructions simulated
sim_ops                                     454676431                       # Number of ops (including micro ops) simulated
sim_seconds                                  1.024958                       # Number of seconds simulated
sim_ticks                                1024958001000                       # Number of ticks simulated
system.cpu.Branches                          31200191                       # Number of branches fetched
system.cpu.committedInsts                   274236100                       # Number of instructions committed
system.cpu.committedOps                     454676431                       # Number of ops (including micro ops) committed
system.cpu.idle_fraction                     0.000000                       # Percentage of idle cycles
system.cpu.not_idle_fraction                 1.000000                       # Percentage of non-idle cycles
system.cpu.numCycles                       1024958001                       # number of cpu cycles simulated
system.cpu.numWorkItemsCompleted                    0                       # number of work items this cpu completed
system.cpu.numWorkItemsStarted                      0                       # number of work items this cpu started
system.cpu.num_busy_cycles               1024958000.999000                       # Number of busy cycles
system.cpu.num_cc_register_reads            168793216                       # number of times the CC registers were read
system.cpu.num_cc_register_writes           169619563                       # number of times the CC registers were written
system.cpu.num_conditional_control_insts     30668785                       # number of instructions that are conditional controls
system.cpu.num_fp_alu_accesses                   1142                       # Number of float alu accesses
system.cpu.num_fp_insts                          1142                       # number of float instructions
system.cpu.num_fp_register_reads                 1314                       # number of times the floating registers were read
system.cpu.num_fp_register_writes                 637                       # number of times the floating registers were written
system.cpu.num_func_calls                      455014                       # number of times a function call or return occured
system.cpu.num_idle_cycles                   0.001000                       # Number of idle cycles
system.cpu.num_int_alu_accesses             454296884                       # Number of integer alu accesses
system.cpu.num_int_insts                    454296884                       # number of integer instructions
system.cpu.num_int_register_reads           812223931                       # number of times the integer registers were read
system.cpu.num_int_register_writes          405572992                       # number of times the integer registers were written
system.cpu.num_load_insts                    94426193                       # Number of load instructions
system.cpu.num_mem_refs                     111950052                       # number of memory refs
system.cpu.num_store_insts                   17523859                       # Number of store instructions
system.cpu.num_vec_alu_accesses                     0                       # Number of vector alu accesses
system.cpu.num_vec_insts                            0                       # number of vector instructions
system.cpu.num_vec_register_reads                   0                       # number of times the vector registers were read
system.cpu.num_vec_register_writes                  0                       # number of times the vector registers were written
system.cpu.op_class::No_OpClass                227646      0.05%      0.05% # Class of executed instruction
system.cpu.op_class::IntAlu                 342498030     75.33%     75.38% # Class of executed instruction
system.cpu.op_class::IntMult                      205      0.00%     75.38% # Class of executed instruction
system.cpu.op_class::IntDiv                        21      0.00%     75.38% # Class of executed instruction
system.cpu.op_class::FloatAdd                     135      0.00%     75.38% # Class of executed instruction
system.cpu.op_class::FloatCmp                       0      0.00%     75.38% # Class of executed instruction
system.cpu.op_class::FloatCvt                       0      0.00%     75.38% # Class of executed instruction
system.cpu.op_class::FloatMult                      0      0.00%     75.38% # Class of executed instruction
system.cpu.op_class::FloatMultAcc                   0      0.00%     75.38% # Class of executed instruction
system.cpu.op_class::FloatDiv                       0      0.00%     75.38% # Class of executed instruction
system.cpu.op_class::FloatMisc                      0      0.00%     75.38% # Class of executed instruction
system.cpu.op_class::FloatSqrt                      0      0.00%     75.38% # Class of executed instruction
system.cpu.op_class::SimdAdd                        0      0.00%     75.38% # Class of executed instruction
system.cpu.op_class::SimdAddAcc                     0      0.00%     75.38% # Class of executed instruction
system.cpu.op_class::SimdAlu                       94      0.00%     75.38% # Class of executed instruction
system.cpu.op_class::SimdCmp                        0      0.00%     75.38% # Class of executed instruction
system.cpu.op_class::SimdCvt                       46      0.00%     75.38% # Class of executed instruction
system.cpu.op_class::SimdMisc                     215      0.00%     75.38% # Class of executed instruction
system.cpu.op_class::SimdMult                       0      0.00%     75.38% # Class of executed instruction
system.cpu.op_class::SimdMultAcc                    0      0.00%     75.38% # Class of executed instruction
system.cpu.op_class::SimdShift                      0      0.00%     75.38% # Class of executed instruction
system.cpu.op_class::SimdShiftAcc                   0      0.00%     75.38% # Class of executed instruction
system.cpu.op_class::SimdDiv                        0      0.00%     75.38% # Class of executed instruction
system.cpu.op_class::SimdSqrt                       0      0.00%     75.38% # Class of executed instruction
system.cpu.op_class::SimdFloatAdd                   0      0.00%     75.38% # Class of executed instruction
system.cpu.op_class::SimdFloatAlu                   0      0.00%     75.38% # Class of executed instruction
system.cpu.op_class::SimdFloatCmp                   0      0.00%     75.38% # Class of executed instruction
system.cpu.op_class::SimdFloatCvt                   0      0.00%     75.38% # Class of executed instruction
system.cpu.op_class::SimdFloatDiv                   0      0.00%     75.38% # Class of executed instruction
system.cpu.op_class::SimdFloatMisc                  0      0.00%     75.38% # Class of executed instruction
system.cpu.op_class::SimdFloatMult                  0      0.00%     75.38% # Class of executed instruction
system.cpu.op_class::SimdFloatMultAcc               0      0.00%     75.38% # Class of executed instruction
system.cpu.op_class::SimdFloatSqrt                  0      0.00%     75.38% # Class of executed instruction
system.cpu.op_class::SimdReduceAdd                  0      0.00%     75.38% # Class of executed instruction
system.cpu.op_class::SimdReduceAlu                  0      0.00%     75.38% # Class of executed instruction
system.cpu.op_class::SimdReduceCmp                  0      0.00%     75.38% # Class of executed instruction
system.cpu.op_class::SimdFloatReduceAdd             0      0.00%     75.38% # Class of executed instruction
system.cpu.op_class::SimdFloatReduceCmp             0      0.00%     75.38% # Class of executed instruction
system.cpu.op_class::SimdAes                        0      0.00%     75.38% # Class of executed instruction
system.cpu.op_class::SimdAesMix                     0      0.00%     75.38% # Class of executed instruction
system.cpu.op_class::SimdSha1Hash                   0      0.00%     75.38% # Class of executed instruction
system.cpu.op_class::SimdSha1Hash2                  0      0.00%     75.38% # Class of executed instruction
system.cpu.op_class::SimdSha256Hash                 0      0.00%     75.38% # Class of executed instruction
system.cpu.op_class::SimdSha256Hash2                0      0.00%     75.38% # Class of executed instruction
system.cpu.op_class::SimdShaSigma2                  0      0.00%     75.38% # Class of executed instruction
system.cpu.op_class::SimdShaSigma3                  0      0.00%     75.38% # Class of executed instruction
system.cpu.op_class::SimdPredAlu                    0      0.00%     75.38% # Class of executed instruction
system.cpu.op_class::MemRead                 94426139     20.77%     96.15% # Class of executed instruction
system.cpu.op_class::MemWrite                17523400      3.85%    100.00% # Class of executed instruction
system.cpu.op_class::FloatMemRead                  54      0.00%    100.00% # Class of executed instruction
system.cpu.op_class::FloatMemWrite                459      0.00%    100.00% # Class of executed instruction
system.cpu.op_class::IprAccess                      0      0.00%    100.00% # Class of executed instruction
system.cpu.op_class::InstPrefetch                   0      0.00%    100.00% # Class of executed instruction
system.cpu.op_class::total                  454676444                       # Class of executed instruction
system.cpu.workload.numSyscalls                    10                       # Number of system calls
system.l2bus.snoop_filter.hit_multi_requests            0                       # Number of requests hitting in the snoop filter with multiple (>1) holders of the requested data.
system.l2bus.snoop_filter.hit_multi_snoops            0                       # Number of snoops hitting in the snoop filter with multiple (>1) holders of the requested data.
system.l2bus.snoop_filter.hit_single_requests        49532                       # Number of requests hitting in the snoop filter with a single holder of the requested data.
system.l2bus.snoop_filter.hit_single_snoops          658                       # Number of snoops hitting in the snoop filter with a single holder of the requested data.
system.l2bus.snoop_filter.tot_requests         100323                       # Total number of requests made to the snoop filter.
system.l2bus.snoop_filter.tot_snoops              658                       # Total number of snoops made to the snoop filter.
system.membus.snoop_filter.hit_multi_requests            0                       # Number of requests hitting in the snoop filter with multiple (>1) holders of the requested data.
system.membus.snoop_filter.hit_multi_snoops            0                       # Number of snoops hitting in the snoop filter with multiple (>1) holders of the requested data.
system.membus.snoop_filter.hit_single_requests        24995                       # Number of requests hitting in the snoop filter with a single holder of the requested data.
system.membus.snoop_filter.hit_single_snoops            0                       # Number of snoops hitting in the snoop filter with a single holder of the requested data.
system.membus.snoop_filter.tot_requests         54682                       # Total number of requests made to the snoop filter.
system.membus.snoop_filter.tot_snoops               0                       # Total number of snoops made to the snoop filter.
system.clk_domain.clock                          1000                       # Clock period in ticks
system.clk_domain.voltage_domain.voltage            1                       # Voltage in Volts
system.cpu.dcache.demand_hits::.cpu.data    111899691                       # number of demand (read+write) hits
system.cpu.dcache.demand_hits::total        111899691                       # number of demand (read+write) hits
system.cpu.dcache.overall_hits::.cpu.data    111899691                       # number of overall hits
system.cpu.dcache.overall_hits::total       111899691                       # number of overall hits
system.cpu.dcache.demand_misses::.cpu.data        50362                       # number of demand (read+write) misses
system.cpu.dcache.demand_misses::total          50362                       # number of demand (read+write) misses
system.cpu.dcache.overall_misses::.cpu.data        50362                       # number of overall misses
system.cpu.dcache.overall_misses::total         50362                       # number of overall misses
system.cpu.dcache.demand_miss_latency::.cpu.data   3308591000                       # number of demand (read+write) miss cycles
system.cpu.dcache.demand_miss_latency::total   3308591000                       # number of demand (read+write) miss cycles
system.cpu.dcache.overall_miss_latency::.cpu.data   3308591000                       # number of overall miss cycles
system.cpu.dcache.overall_miss_latency::total   3308591000                       # number of overall miss cycles
system.cpu.dcache.demand_accesses::.cpu.data    111950053                       # number of demand (read+write) accesses
system.cpu.dcache.demand_accesses::total    111950053                       # number of demand (read+write) accesses
system.cpu.dcache.overall_accesses::.cpu.data    111950053                       # number of overall (read+write) accesses
system.cpu.dcache.overall_accesses::total    111950053                       # number of overall (read+write) accesses
system.cpu.dcache.demand_miss_rate::.cpu.data     0.000450                       # miss rate for demand accesses
system.cpu.dcache.demand_miss_rate::total     0.000450                       # miss rate for demand accesses
system.cpu.dcache.overall_miss_rate::.cpu.data     0.000450                       # miss rate for overall accesses
system.cpu.dcache.overall_miss_rate::total     0.000450                       # miss rate for overall accesses
system.cpu.dcache.demand_avg_miss_latency::.cpu.data 65696.179659                       # average overall miss latency
system.cpu.dcache.demand_avg_miss_latency::total 65696.179659                       # average overall miss latency
system.cpu.dcache.overall_avg_miss_latency::.cpu.data 65696.179659                       # average overall miss latency
system.cpu.dcache.overall_avg_miss_latency::total 65696.179659                       # average overall miss latency
system.cpu.dcache.blocked_cycles::no_mshrs            0                       # number of cycles access was blocked
system.cpu.dcache.blocked_cycles::no_targets            0                       # number of cycles access was blocked
system.cpu.dcache.blocked::no_mshrs                 0                       # number of cycles access was blocked
system.cpu.dcache.blocked::no_targets               0                       # number of cycles access was blocked
system.cpu.dcache.avg_blocked_cycles::no_mshrs          nan                       # average number of cycles each access was blocked
system.cpu.dcache.avg_blocked_cycles::no_targets          nan                       # average number of cycles each access was blocked
system.cpu.dcache.writebacks::.writebacks        31758                       # number of writebacks
system.cpu.dcache.writebacks::total             31758                       # number of writebacks
system.cpu.dcache.demand_mshr_misses::.cpu.data        50362                       # number of demand (read+write) MSHR misses
system.cpu.dcache.demand_mshr_misses::total        50362                       # number of demand (read+write) MSHR misses
system.cpu.dcache.overall_mshr_misses::.cpu.data        50362                       # number of overall MSHR misses
system.cpu.dcache.overall_mshr_misses::total        50362                       # number of overall MSHR misses
system.cpu.dcache.demand_mshr_miss_latency::.cpu.data   3207867000                       # number of demand (read+write) MSHR miss cycles
system.cpu.dcache.demand_mshr_miss_latency::total   3207867000                       # number of demand (read+write) MSHR miss cycles
system.cpu.dcache.overall_mshr_miss_latency::.cpu.data   3207867000                       # number of overall MSHR miss cycles
system.cpu.dcache.overall_mshr_miss_latency::total   3207867000                       # number of overall MSHR miss cycles
system.cpu.dcache.demand_mshr_miss_rate::.cpu.data     0.000450                       # mshr miss rate for demand accesses
system.cpu.dcache.demand_mshr_miss_rate::total     0.000450                       # mshr miss rate for demand accesses
system.cpu.dcache.overall_mshr_miss_rate::.cpu.data     0.000450                       # mshr miss rate for overall accesses
system.cpu.dcache.overall_mshr_miss_rate::total     0.000450                       # mshr miss rate for overall accesses
system.cpu.dcache.demand_avg_mshr_miss_latency::.cpu.data 63696.179659                       # average overall mshr miss latency
system.cpu.dcache.demand_avg_mshr_miss_latency::total 63696.179659                       # average overall mshr miss latency
system.cpu.dcache.overall_avg_mshr_miss_latency::.cpu.data 63696.179659                       # average overall mshr miss latency
system.cpu.dcache.overall_avg_mshr_miss_latency::total 63696.179659                       # average overall mshr miss latency
system.cpu.dcache.replacements                  49338                       # number of replacements
system.cpu.dcache.ReadReq_hits::.cpu.data     94404398                       # number of ReadReq hits
system.cpu.dcache.ReadReq_hits::total        94404398                       # number of ReadReq hits
system.cpu.dcache.ReadReq_misses::.cpu.data        21797                       # number of ReadReq misses
system.cpu.dcache.ReadReq_misses::total         21797                       # number of ReadReq misses
system.cpu.dcache.ReadReq_miss_latency::.cpu.data    617468000                       # number of ReadReq miss cycles
system.cpu.dcache.ReadReq_miss_latency::total    617468000                       # number of ReadReq miss cycles
system.cpu.dcache.ReadReq_accesses::.cpu.data     94426195                       # number of ReadReq accesses(hits+misses)
system.cpu.dcache.ReadReq_accesses::total     94426195                       # number of ReadReq accesses(hits+misses)
system.cpu.dcache.ReadReq_miss_rate::.cpu.data     0.000231                       # miss rate for ReadReq accesses
system.cpu.dcache.ReadReq_miss_rate::total     0.000231                       # miss rate for ReadReq accesses
system.cpu.dcache.ReadReq_avg_miss_latency::.cpu.data 28328.118548                       # average ReadReq miss latency
system.cpu.dcache.ReadReq_avg_miss_latency::total 28328.118548                       # average ReadReq miss latency
system.cpu.dcache.ReadReq_mshr_misses::.cpu.data        21797                       # number of ReadReq MSHR misses
system.cpu.dcache.ReadReq_mshr_misses::total        21797                       # number of ReadReq MSHR misses
system.cpu.dcache.ReadReq_mshr_miss_latency::.cpu.data    573874000                       # number of ReadReq MSHR miss cycles
system.cpu.dcache.ReadReq_mshr_miss_latency::total    573874000                       # number of ReadReq MSHR miss cycles
system.cpu.dcache.ReadReq_mshr_miss_rate::.cpu.data     0.000231                       # mshr miss rate for ReadReq accesses
system.cpu.dcache.ReadReq_mshr_miss_rate::total     0.000231                       # mshr miss rate for ReadReq accesses
system.cpu.dcache.ReadReq_avg_mshr_miss_latency::.cpu.data 26328.118548                       # average ReadReq mshr miss latency
system.cpu.dcache.ReadReq_avg_mshr_miss_latency::total 26328.118548                       # average ReadReq mshr miss latency
system.cpu.dcache.WriteReq_hits::.cpu.data     17495293                       # number of WriteReq hits
system.cpu.dcache.WriteReq_hits::total       17495293                       # number of WriteReq hits
system.cpu.dcache.WriteReq_misses::.cpu.data        28565                       # number of WriteReq misses
system.cpu.dcache.WriteReq_misses::total        28565                       # number of WriteReq misses
system.cpu.dcache.WriteReq_miss_latency::.cpu.data   2691123000                       # number of WriteReq miss cycles
system.cpu.dcache.WriteReq_miss_latency::total   2691123000                       # number of WriteReq miss cycles
system.cpu.dcache.WriteReq_accesses::.cpu.data     17523858                       # number of WriteReq accesses(hits+misses)
system.cpu.dcache.WriteReq_accesses::total     17523858                       # number of WriteReq accesses(hits+misses)
system.cpu.dcache.WriteReq_miss_rate::.cpu.data     0.001630                       # miss rate for WriteReq accesses
system.cpu.dcache.WriteReq_miss_rate::total     0.001630                       # miss rate for WriteReq accesses
system.cpu.dcache.WriteReq_avg_miss_latency::.cpu.data 94210.502363                       # average WriteReq miss latency
system.cpu.dcache.WriteReq_avg_miss_latency::total 94210.502363                       # average WriteReq miss latency
system.cpu.dcache.WriteReq_mshr_misses::.cpu.data        28565                       # number of WriteReq MSHR misses
system.cpu.dcache.WriteReq_mshr_misses::total        28565                       # number of WriteReq MSHR misses
system.cpu.dcache.WriteReq_mshr_miss_latency::.cpu.data   2633993000                       # number of WriteReq MSHR miss cycles
system.cpu.dcache.WriteReq_mshr_miss_latency::total   2633993000                       # number of WriteReq MSHR miss cycles
system.cpu.dcache.WriteReq_mshr_miss_rate::.cpu.data     0.001630                       # mshr miss rate for WriteReq accesses
system.cpu.dcache.WriteReq_mshr_miss_rate::total     0.001630                       # mshr miss rate for WriteReq accesses
system.cpu.dcache.WriteReq_avg_mshr_miss_latency::.cpu.data 92210.502363                       # average WriteReq mshr miss latency
system.cpu.dcache.WriteReq_avg_mshr_miss_latency::total 92210.502363                       # average WriteReq mshr miss latency
system.cpu.dcache.power_state.pwrStateResidencyTicks::UNDEFINED 1024958001000                       # Cumulative time (in ticks) in various power states
system.cpu.dcache.tags.tagsinuse          1022.382846                       # Cycle average of tags in use
system.cpu.dcache.tags.total_refs           111950053                       # Total number of references to valid blocks.
system.cpu.dcache.tags.sampled_refs             50362                       # Sample count of references to valid blocks.
system.cpu.dcache.tags.avg_refs           2222.907212                       # Average number of references to valid blocks.
system.cpu.dcache.tags.warmup_cycle            196000                       # Cycle when the warmup percentage was hit.
system.cpu.dcache.tags.occ_blocks::.cpu.data  1022.382846                       # Average occupied blocks per requestor
system.cpu.dcache.tags.occ_percent::.cpu.data     0.998421                       # Average percentage of cache occupancy
system.cpu.dcache.tags.occ_percent::total     0.998421                       # Average percentage of cache occupancy
system.cpu.dcache.tags.occ_task_id_blocks::1024         1024                       # Occupied blocks per task id
system.cpu.dcache.tags.age_task_id_blocks_1024::0           25                       # Occupied blocks per task id
system.cpu.dcache.tags.age_task_id_blocks_1024::2           22                       # Occupied blocks per task id
system.cpu.dcache.tags.age_task_id_blocks_1024::3          302                       # Occupied blocks per task id
system.cpu.dcache.tags.age_task_id_blocks_1024::4          675                       # Occupied blocks per task id
system.cpu.dcache.tags.occ_task_id_percent::1024            1                       # Percentage of cache occupancy per task id
system.cpu.dcache.tags.tag_accesses         223950468                       # Number of tag accesses
system.cpu.dcache.tags.data_accesses        223950468                       # Number of data accesses
system.cpu.dcache.tags.power_state.pwrStateResidencyTicks::UNDEFINED 1024958001000                       # Cumulative time (in ticks) in various power states
system.cpu.dtb.rdAccesses                    94426196                       # TLB accesses on read requests
system.cpu.dtb.wrAccesses                    17523860                       # TLB accesses on write requests
system.cpu.dtb.rdMisses                            28                       # TLB misses on read requests
system.cpu.dtb.wrMisses                           453                       # TLB misses on write requests
system.cpu.dtb.walker.power_state.pwrStateResidencyTicks::UNDEFINED 1024958001000                       # Cumulative time (in ticks) in various power states
system.cpu.icache.demand_hits::.cpu.inst    398905272                       # number of demand (read+write) hits
system.cpu.icache.demand_hits::total        398905272                       # number of demand (read+write) hits
system.cpu.icache.overall_hits::.cpu.inst    398905272                       # number of overall hits
system.cpu.icache.overall_hits::total       398905272                       # number of overall hits
system.cpu.icache.demand_misses::.cpu.inst          429                       # number of demand (read+write) misses
system.cpu.icache.demand_misses::total            429                       # number of demand (read+write) misses
system.cpu.icache.overall_misses::.cpu.inst          429                       # number of overall misses
system.cpu.icache.overall_misses::total           429                       # number of overall misses
system.cpu.icache.demand_miss_latency::.cpu.inst     39490000                       # number of demand (read+write) miss cycles
system.cpu.icache.demand_miss_latency::total     39490000                       # number of demand (read+write) miss cycles
system.cpu.icache.overall_miss_latency::.cpu.inst     39490000                       # number of overall miss cycles
system.cpu.icache.overall_miss_latency::total     39490000                       # number of overall miss cycles
system.cpu.icache.demand_accesses::.cpu.inst    398905701                       # number of demand (read+write) accesses
system.cpu.icache.demand_accesses::total    398905701                       # number of demand (read+write) accesses
system.cpu.icache.overall_accesses::.cpu.inst    398905701                       # number of overall (read+write) accesses
system.cpu.icache.overall_accesses::total    398905701                       # number of overall (read+write) accesses
system.cpu.icache.demand_miss_rate::.cpu.inst     0.000001                       # miss rate for demand accesses
system.cpu.icache.demand_miss_rate::total     0.000001                       # miss rate for demand accesses
system.cpu.icache.overall_miss_rate::.cpu.inst     0.000001                       # miss rate for overall accesses
system.cpu.icache.overall_miss_rate::total     0.000001                       # miss rate for overall accesses
system.cpu.icache.demand_avg_miss_latency::.cpu.inst 92051.282051                       # average overall miss latency
system.cpu.icache.demand_avg_miss_latency::total 92051.282051                       # average overall miss latency
system.cpu.icache.overall_avg_miss_latency::.cpu.inst 92051.282051                       # average overall miss latency
system.cpu.icache.overall_avg_miss_latency::total 92051.282051                       # average overall miss latency
system.cpu.icache.blocked_cycles::no_mshrs            0                       # number of cycles access was blocked
system.cpu.icache.blocked_cycles::no_targets            0                       # number of cycles access was blocked
system.cpu.icache.blocked::no_mshrs                 0                       # number of cycles access was blocked
system.cpu.icache.blocked::no_targets               0                       # number of cycles access was blocked
system.cpu.icache.avg_blocked_cycles::no_mshrs          nan                       # average number of cycles each access was blocked
system.cpu.icache.avg_blocked_cycles::no_targets          nan                       # average number of cycles each access was blocked
system.cpu.icache.demand_mshr_misses::.cpu.inst          429                       # number of demand (read+write) MSHR misses
system.cpu.icache.demand_mshr_misses::total          429                       # number of demand (read+write) MSHR misses
system.cpu.icache.overall_mshr_misses::.cpu.inst          429                       # number of overall MSHR misses
system.cpu.icache.overall_mshr_misses::total          429                       # number of overall MSHR misses
system.cpu.icache.demand_mshr_miss_latency::.cpu.inst     38632000                       # number of demand (read+write) MSHR miss cycles
system.cpu.icache.demand_mshr_miss_latency::total     38632000                       # number of demand (read+write) MSHR miss cycles
system.cpu.icache.overall_mshr_miss_latency::.cpu.inst     38632000                       # number of overall MSHR miss cycles
system.cpu.icache.overall_mshr_miss_latency::total     38632000                       # number of overall MSHR miss cycles
system.cpu.icache.demand_mshr_miss_rate::.cpu.inst     0.000001                       # mshr miss rate for demand accesses
system.cpu.icache.demand_mshr_miss_rate::total     0.000001                       # mshr miss rate for demand accesses
system.cpu.icache.overall_mshr_miss_rate::.cpu.inst     0.000001                       # mshr miss rate for overall accesses
system.cpu.icache.overall_mshr_miss_rate::total     0.000001                       # mshr miss rate for overall accesses
system.cpu.icache.demand_avg_mshr_miss_latency::.cpu.inst 90051.282051                       # average overall mshr miss latency
system.cpu.icache.demand_avg_mshr_miss_latency::total 90051.282051                       # average overall mshr miss latency
system.cpu.icache.overall_avg_mshr_miss_latency::.cpu.inst 90051.282051                       # average overall mshr miss latency
system.cpu.icache.overall_avg_mshr_miss_latency::total 90051.282051                       # average overall mshr miss latency
system.cpu.icache.replacements                    194                       # number of replacements
system.cpu.icache.ReadReq_hits::.cpu.inst    398905272                       # number of ReadReq hits
system.cpu.icache.ReadReq_hits::total       398905272                       # number of ReadReq hits
system.cpu.icache.ReadReq_misses::.cpu.inst          429                       # number of ReadReq misses
system.cpu.icache.ReadReq_misses::total           429                       # number of ReadReq misses
system.cpu.icache.ReadReq_miss_latency::.cpu.inst     39490000                       # number of ReadReq miss cycles
system.cpu.icache.ReadReq_miss_latency::total     39490000                       # number of ReadReq miss cycles
system.cpu.icache.ReadReq_accesses::.cpu.inst    398905701                       # number of ReadReq accesses(hits+misses)
system.cpu.icache.ReadReq_accesses::total    398905701                       # number of ReadReq accesses(hits+misses)
system.cpu.icache.ReadReq_miss_rate::.cpu.inst     0.000001                       # miss rate for ReadReq accesses
system.cpu.icache.ReadReq_miss_rate::total     0.000001                       # miss rate for ReadReq accesses
system.cpu.icache.ReadReq_avg_miss_latency::.cpu.inst 92051.282051                       # average ReadReq miss latency
system.cpu.icache.ReadReq_avg_miss_latency::total 92051.282051                       # average ReadReq miss latency
system.cpu.icache.ReadReq_mshr_misses::.cpu.inst          429                       # number of ReadReq MSHR misses
system.cpu.icache.ReadReq_mshr_misses::total          429                       # number of ReadReq MSHR misses
system.cpu.icache.ReadReq_mshr_miss_latency::.cpu.inst     38632000                       # number of ReadReq MSHR miss cycles
system.cpu.icache.ReadReq_mshr_miss_latency::total     38632000                       # number of ReadReq MSHR miss cycles
system.cpu.icache.ReadReq_mshr_miss_rate::.cpu.inst     0.000001                       # mshr miss rate for ReadReq accesses
system.cpu.icache.ReadReq_mshr_miss_rate::total     0.000001                       # mshr miss rate for ReadReq accesses
system.cpu.icache.ReadReq_avg_mshr_miss_latency::.cpu.inst 90051.282051                       # average ReadReq mshr miss latency
system.cpu.icache.ReadReq_avg_mshr_miss_latency::total 90051.282051                       # average ReadReq mshr miss latency
system.cpu.icache.power_state.pwrStateResidencyTicks::UNDEFINED 1024958001000                       # Cumulative time (in ticks) in various power states
system.cpu.icache.tags.tagsinuse           228.993056                       # Cycle average of tags in use
system.cpu.icache.tags.total_refs           398905701                       # Total number of references to valid blocks.
system.cpu.icache.tags.sampled_refs               429                       # Sample count of references to valid blocks.
system.cpu.icache.tags.avg_refs          929850.118881                       # Average number of references to valid blocks.
system.cpu.icache.tags.warmup_cycle             93000                       # Cycle when the warmup percentage was hit.
system.cpu.icache.tags.occ_blocks::.cpu.inst   228.993056                       # Average occupied blocks per requestor
system.cpu.icache.tags.occ_percent::.cpu.inst     0.894504                       # Average percentage of cache occupancy
system.cpu.icache.tags.occ_percent::total     0.894504                       # Average percentage of cache occupancy
system.cpu.icache.tags.occ_task_id_blocks::1024          235                       # Occupied blocks per task id
system.cpu.icache.tags.age_task_id_blocks_1024::0           36                       # Occupied blocks per task id
system.cpu.icache.tags.age_task_id_blocks_1024::4          199                       # Occupied blocks per task id
system.cpu.icache.tags.occ_task_id_percent::1024     0.917969                       # Percentage of cache occupancy per task id
system.cpu.icache.tags.tag_accesses         797811831                       # Number of tag accesses
system.cpu.icache.tags.data_accesses        797811831                       # Number of data accesses
system.cpu.icache.tags.power_state.pwrStateResidencyTicks::UNDEFINED 1024958001000                       # Cumulative time (in ticks) in various power states
system.cpu.interrupts.clk_domain.clock          16000                       # Clock period in ticks
system.cpu.itb.rdAccesses                           0                       # TLB accesses on read requests
system.cpu.itb.wrAccesses                   398905701                       # TLB accesses on write requests
system.cpu.itb.rdMisses                             0                       # TLB misses on read requests
system.cpu.itb.wrMisses                            38                       # TLB misses on write requests
system.cpu.itb.walker.power_state.pwrStateResidencyTicks::UNDEFINED 1024958001000                       # Cumulative time (in ticks) in various power states
system.cpu.power_state.pwrStateResidencyTicks::ON 1024958001000                       # Cumulative time (in ticks) in various power states
system.cpu.thread8819.numInsts                      0                       # Number of Instructions committed
system.cpu.thread8819.numOps                        0                       # Number of Ops committed
system.cpu.thread8819.numMemRefs                    0                       # Number of Memory References
system.l2bus.trans_dist::ReadResp               22226                       # Transaction distribution
system.l2bus.trans_dist::WritebackDirty         56500                       # Transaction distribution
system.l2bus.trans_dist::CleanEvict             18656                       # Transaction distribution
system.l2bus.trans_dist::ReadExReq              28565                       # Transaction distribution
system.l2bus.trans_dist::ReadExResp             28565                       # Transaction distribution
system.l2bus.trans_dist::ReadSharedReq          22226                       # Transaction distribution
system.l2bus.pkt_count_system.cpu.icache.mem_side_port::system.l2cache.cpu_side_port         1052                       # Packet count per connected requestor and responder (bytes)
system.l2bus.pkt_count_system.cpu.dcache.mem_side_port::system.l2cache.cpu_side_port       150062                       # Packet count per connected requestor and responder (bytes)
system.l2bus.pkt_count::total                  151114                       # Packet count per connected requestor and responder (bytes)
system.l2bus.pkt_size_system.cpu.icache.mem_side_port::system.l2cache.cpu_side_port        27456                       # Cumulative packet size per connected requestor and responder (bytes)
system.l2bus.pkt_size_system.cpu.dcache.mem_side_port::system.l2cache.cpu_side_port      5255680                       # Cumulative packet size per connected requestor and responder (bytes)
system.l2bus.pkt_size::total                  5283136                       # Cumulative packet size per connected requestor and responder (bytes)
system.l2bus.snoops                             25624                       # Total snoops (count)
system.l2bus.snoopTraffic                     1583488                       # Total snoop traffic (bytes)
system.l2bus.snoop_fanout::samples              76415                       # Request fanout histogram
system.l2bus.snoop_fanout::mean              0.008611                       # Request fanout histogram
system.l2bus.snoop_fanout::stdev             0.092395                       # Request fanout histogram
system.l2bus.snoop_fanout::underflows               0      0.00%      0.00% # Request fanout histogram
system.l2bus.snoop_fanout::0                    75757     99.14%     99.14% # Request fanout histogram
system.l2bus.snoop_fanout::1                      658      0.86%    100.00% # Request fanout histogram
system.l2bus.snoop_fanout::2                        0      0.00%    100.00% # Request fanout histogram
system.l2bus.snoop_fanout::overflows                0      0.00%    100.00% # Request fanout histogram
system.l2bus.snoop_fanout::min_value                0                       # Request fanout histogram
system.l2bus.snoop_fanout::max_value                1                       # Request fanout histogram
system.l2bus.snoop_fanout::total                76415                       # Request fanout histogram
system.l2bus.power_state.pwrStateResidencyTicks::UNDEFINED 1024958001000                       # Cumulative time (in ticks) in various power states
system.l2bus.reqLayer0.occupancy            163839000                       # Layer occupancy (ticks)
system.l2bus.reqLayer0.utilization                0.0                       # Layer utilization (%)
system.l2bus.respLayer0.occupancy             1287000                       # Layer occupancy (ticks)
system.l2bus.respLayer0.utilization               0.0                       # Layer utilization (%)
system.l2bus.respLayer1.occupancy           151086000                       # Layer occupancy (ticks)
system.l2bus.respLayer1.utilization               0.0                       # Layer utilization (%)
system.l2cache.demand_hits::.cpu.inst              16                       # number of demand (read+write) hits
system.l2cache.demand_hits::.cpu.data           21088                       # number of demand (read+write) hits
system.l2cache.demand_hits::total               21104                       # number of demand (read+write) hits
system.l2cache.overall_hits::.cpu.inst             16                       # number of overall hits
system.l2cache.overall_hits::.cpu.data          21088                       # number of overall hits
system.l2cache.overall_hits::total              21104                       # number of overall hits
system.l2cache.demand_misses::.cpu.inst           413                       # number of demand (read+write) misses
system.l2cache.demand_misses::.cpu.data         29274                       # number of demand (read+write) misses
system.l2cache.demand_misses::total             29687                       # number of demand (read+write) misses
system.l2cache.overall_misses::.cpu.inst          413                       # number of overall misses
system.l2cache.overall_misses::.cpu.data        29274                       # number of overall misses
system.l2cache.overall_misses::total            29687                       # number of overall misses
system.l2cache.demand_miss_latency::.cpu.inst     37008000                       # number of demand (read+write) miss cycles
system.l2cache.demand_miss_latency::.cpu.data   2613933000                       # number of demand (read+write) miss cycles
system.l2cache.demand_miss_latency::total   2650941000                       # number of demand (read+write) miss cycles
system.l2cache.overall_miss_latency::.cpu.inst     37008000                       # number of overall miss cycles
system.l2cache.overall_miss_latency::.cpu.data   2613933000                       # number of overall miss cycles
system.l2cache.overall_miss_latency::total   2650941000                       # number of overall miss cycles
system.l2cache.demand_accesses::.cpu.inst          429                       # number of demand (read+write) accesses
system.l2cache.demand_accesses::.cpu.data        50362                       # number of demand (read+write) accesses
system.l2cache.demand_accesses::total           50791                       # number of demand (read+write) accesses
system.l2cache.overall_accesses::.cpu.inst          429                       # number of overall (read+write) accesses
system.l2cache.overall_accesses::.cpu.data        50362                       # number of overall (read+write) accesses
system.l2cache.overall_accesses::total          50791                       # number of overall (read+write) accesses
system.l2cache.demand_miss_rate::.cpu.inst     0.962704                       # miss rate for demand accesses
system.l2cache.demand_miss_rate::.cpu.data     0.581272                       # miss rate for demand accesses
system.l2cache.demand_miss_rate::total       0.584493                       # miss rate for demand accesses
system.l2cache.overall_miss_rate::.cpu.inst     0.962704                       # miss rate for overall accesses
system.l2cache.overall_miss_rate::.cpu.data     0.581272                       # miss rate for overall accesses
system.l2cache.overall_miss_rate::total      0.584493                       # miss rate for overall accesses
system.l2cache.demand_avg_miss_latency::.cpu.inst 89607.748184                       # average overall miss latency
system.l2cache.demand_avg_miss_latency::.cpu.data 89291.965567                       # average overall miss latency
system.l2cache.demand_avg_miss_latency::total 89296.358676                       # average overall miss latency
system.l2cache.overall_avg_miss_latency::.cpu.inst 89607.748184                       # average overall miss latency
system.l2cache.overall_avg_miss_latency::.cpu.data 89291.965567                       # average overall miss latency
system.l2cache.overall_avg_miss_latency::total 89296.358676                       # average overall miss latency
system.l2cache.blocked_cycles::no_mshrs             0                       # number of cycles access was blocked
system.l2cache.blocked_cycles::no_targets            0                       # number of cycles access was blocked
system.l2cache.blocked::no_mshrs                    0                       # number of cycles access was blocked
system.l2cache.blocked::no_targets                  0                       # number of cycles access was blocked
system.l2cache.avg_blocked_cycles::no_mshrs          nan                       # average number of cycles each access was blocked
system.l2cache.avg_blocked_cycles::no_targets          nan                       # average number of cycles each access was blocked
system.l2cache.writebacks::.writebacks          24742                       # number of writebacks
system.l2cache.writebacks::total                24742                       # number of writebacks
system.l2cache.demand_mshr_misses::.cpu.inst          413                       # number of demand (read+write) MSHR misses
system.l2cache.demand_mshr_misses::.cpu.data        29274                       # number of demand (read+write) MSHR misses
system.l2cache.demand_mshr_misses::total        29687                       # number of demand (read+write) MSHR misses
system.l2cache.overall_mshr_misses::.cpu.inst          413                       # number of overall MSHR misses
system.l2cache.overall_mshr_misses::.cpu.data        29274                       # number of overall MSHR misses
system.l2cache.overall_mshr_misses::total        29687                       # number of overall MSHR misses
system.l2cache.demand_mshr_miss_latency::.cpu.inst     28748000                       # number of demand (read+write) MSHR miss cycles
system.l2cache.demand_mshr_miss_latency::.cpu.data   2028453000                       # number of demand (read+write) MSHR miss cycles
system.l2cache.demand_mshr_miss_latency::total   2057201000                       # number of demand (read+write) MSHR miss cycles
system.l2cache.overall_mshr_miss_latency::.cpu.inst     28748000                       # number of overall MSHR miss cycles
system.l2cache.overall_mshr_miss_latency::.cpu.data   2028453000                       # number of overall MSHR miss cycles
system.l2cache.overall_mshr_miss_latency::total   2057201000                       # number of overall MSHR miss cycles
system.l2cache.demand_mshr_miss_rate::.cpu.inst     0.962704                       # mshr miss rate for demand accesses
system.l2cache.demand_mshr_miss_rate::.cpu.data     0.581272                       # mshr miss rate for demand accesses
system.l2cache.demand_mshr_miss_rate::total     0.584493                       # mshr miss rate for demand accesses
system.l2cache.overall_mshr_miss_rate::.cpu.inst     0.962704                       # mshr miss rate for overall accesses
system.l2cache.overall_mshr_miss_rate::.cpu.data     0.581272                       # mshr miss rate for overall accesses
system.l2cache.overall_mshr_miss_rate::total     0.584493                       # mshr miss rate for overall accesses
system.l2cache.demand_avg_mshr_miss_latency::.cpu.inst 69607.748184                       # average overall mshr miss latency
system.l2cache.demand_avg_mshr_miss_latency::.cpu.data 69291.965567                       # average overall mshr miss latency
system.l2cache.demand_avg_mshr_miss_latency::total 69296.358676                       # average overall mshr miss latency
system.l2cache.overall_avg_mshr_miss_latency::.cpu.inst 69607.748184                       # average overall mshr miss latency
system.l2cache.overall_avg_mshr_miss_latency::.cpu.data 69291.965567                       # average overall mshr miss latency
system.l2cache.overall_avg_mshr_miss_latency::total 69296.358676                       # average overall mshr miss latency
system.l2cache.replacements                     25624                       # number of replacements
system.l2cache.WritebackDirty_hits::.writebacks        31758                       # number of WritebackDirty hits
system.l2cache.WritebackDirty_hits::total        31758                       # number of WritebackDirty hits
system.l2cache.WritebackDirty_accesses::.writebacks        31758                       # number of WritebackDirty accesses(hits+misses)
system.l2cache.WritebackDirty_accesses::total        31758                       # number of WritebackDirty accesses(hits+misses)
system.l2cache.CleanEvict_mshr_misses::.writebacks           30                       # number of CleanEvict MSHR misses
system.l2cache.CleanEvict_mshr_misses::total           30                       # number of CleanEvict MSHR misses
system.l2cache.CleanEvict_mshr_miss_rate::.writebacks          inf                       # mshr miss rate for CleanEvict accesses
system.l2cache.CleanEvict_mshr_miss_rate::total          inf                       # mshr miss rate for CleanEvict accesses
system.l2cache.ReadExReq_hits::.cpu.data           32                       # number of ReadExReq hits
system.l2cache.ReadExReq_hits::total               32                       # number of ReadExReq hits
system.l2cache.ReadExReq_misses::.cpu.data        28533                       # number of ReadExReq misses
system.l2cache.ReadExReq_misses::total          28533                       # number of ReadExReq misses
system.l2cache.ReadExReq_miss_latency::.cpu.data   2547626000                       # number of ReadExReq miss cycles
system.l2cache.ReadExReq_miss_latency::total   2547626000                       # number of ReadExReq miss cycles
system.l2cache.ReadExReq_accesses::.cpu.data        28565                       # number of ReadExReq accesses(hits+misses)
system.l2cache.ReadExReq_accesses::total        28565                       # number of ReadExReq accesses(hits+misses)
system.l2cache.ReadExReq_miss_rate::.cpu.data     0.998880                       # miss rate for ReadExReq accesses
system.l2cache.ReadExReq_miss_rate::total     0.998880                       # miss rate for ReadExReq accesses
system.l2cache.ReadExReq_avg_miss_latency::.cpu.data 89287.001016                       # average ReadExReq miss latency
system.l2cache.ReadExReq_avg_miss_latency::total 89287.001016                       # average ReadExReq miss latency
system.l2cache.ReadExReq_mshr_misses::.cpu.data        28533                       # number of ReadExReq MSHR misses
system.l2cache.ReadExReq_mshr_misses::total        28533                       # number of ReadExReq MSHR misses
system.l2cache.ReadExReq_mshr_miss_latency::.cpu.data   1976966000                       # number of ReadExReq MSHR miss cycles
system.l2cache.ReadExReq_mshr_miss_latency::total   1976966000                       # number of ReadExReq MSHR miss cycles
system.l2cache.ReadExReq_mshr_miss_rate::.cpu.data     0.998880                       # mshr miss rate for ReadExReq accesses
system.l2cache.ReadExReq_mshr_miss_rate::total     0.998880                       # mshr miss rate for ReadExReq accesses
system.l2cache.ReadExReq_avg_mshr_miss_latency::.cpu.data 69287.001016                       # average ReadExReq mshr miss latency
system.l2cache.ReadExReq_avg_mshr_miss_latency::total 69287.001016                       # average ReadExReq mshr miss latency
system.l2cache.ReadSharedReq_hits::.cpu.inst           16                       # number of ReadSharedReq hits
system.l2cache.ReadSharedReq_hits::.cpu.data        21056                       # number of ReadSharedReq hits
system.l2cache.ReadSharedReq_hits::total        21072                       # number of ReadSharedReq hits
system.l2cache.ReadSharedReq_misses::.cpu.inst          413                       # number of ReadSharedReq misses
system.l2cache.ReadSharedReq_misses::.cpu.data          741                       # number of ReadSharedReq misses
system.l2cache.ReadSharedReq_misses::total         1154                       # number of ReadSharedReq misses
system.l2cache.ReadSharedReq_miss_latency::.cpu.inst     37008000                       # number of ReadSharedReq miss cycles
system.l2cache.ReadSharedReq_miss_latency::.cpu.data     66307000                       # number of ReadSharedReq miss cycles
system.l2cache.ReadSharedReq_miss_latency::total    103315000                       # number of ReadSharedReq miss cycles
system.l2cache.ReadSharedReq_accesses::.cpu.inst          429                       # number of ReadSharedReq accesses(hits+misses)
system.l2cache.ReadSharedReq_accesses::.cpu.data        21797                       # number of ReadSharedReq accesses(hits+misses)
system.l2cache.ReadSharedReq_accesses::total        22226                       # number of ReadSharedReq accesses(hits+misses)
system.l2cache.ReadSharedReq_miss_rate::.cpu.inst     0.962704                       # miss rate for ReadSharedReq accesses
system.l2cache.ReadSharedReq_miss_rate::.cpu.data     0.033996                       # miss rate for ReadSharedReq accesses
system.l2cache.ReadSharedReq_miss_rate::total     0.051921                       # miss rate for ReadSharedReq accesses
system.l2cache.ReadSharedReq_avg_miss_latency::.cpu.inst 89607.748184                       # average ReadSharedReq miss latency
system.l2cache.ReadSharedReq_avg_miss_latency::.cpu.data 89483.130904                       # average ReadSharedReq miss latency
system.l2cache.ReadSharedReq_avg_miss_latency::total 89527.729636                       # average ReadSharedReq miss latency
system.l2cache.ReadSharedReq_mshr_misses::.cpu.inst          413                       # number of ReadSharedReq MSHR misses
system.l2cache.ReadSharedReq_mshr_misses::.cpu.data          741                       # number of ReadSharedReq MSHR misses
system.l2cache.ReadSharedReq_mshr_misses::total         1154                       # number of ReadSharedReq MSHR misses
system.l2cache.ReadSharedReq_mshr_miss_latency::.cpu.inst     28748000                       # number of ReadSharedReq MSHR miss cycles
system.l2cache.ReadSharedReq_mshr_miss_latency::.cpu.data     51487000                       # number of ReadSharedReq MSHR miss cycles
system.l2cache.ReadSharedReq_mshr_miss_latency::total     80235000                       # number of ReadSharedReq MSHR miss cycles
system.l2cache.ReadSharedReq_mshr_miss_rate::.cpu.inst     0.962704                       # mshr miss rate for ReadSharedReq accesses
system.l2cache.ReadSharedReq_mshr_miss_rate::.cpu.data     0.033996                       # mshr miss rate for ReadSharedReq accesses
system.l2cache.ReadSharedReq_mshr_miss_rate::total     0.051921                       # mshr miss rate for ReadSharedReq accesses
system.l2cache.ReadSharedReq_avg_mshr_miss_latency::.cpu.inst 69607.748184                       # average ReadSharedReq mshr miss latency
system.l2cache.ReadSharedReq_avg_mshr_miss_latency::.cpu.data 69483.130904                       # average ReadSharedReq mshr miss latency
system.l2cache.ReadSharedReq_avg_mshr_miss_latency::total 69527.729636                       # average ReadSharedReq mshr miss latency
system.l2cache.power_state.pwrStateResidencyTicks::UNDEFINED 1024958001000                       # Cumulative time (in ticks) in various power states
system.l2cache.tags.tagsinuse             3952.294134                       # Cycle average of tags in use
system.l2cache.tags.total_refs                 100293                       # Total number of references to valid blocks.
system.l2cache.tags.sampled_refs                29720                       # Sample count of references to valid blocks.
system.l2cache.tags.avg_refs                 3.374596                       # Average number of references to valid blocks.
system.l2cache.tags.warmup_cycle                72000                       # Cycle when the warmup percentage was hit.
system.l2cache.tags.occ_blocks::.writebacks     3.974461                       # Average occupied blocks per requestor
system.l2cache.tags.occ_blocks::.cpu.inst    38.581619                       # Average occupied blocks per requestor
system.l2cache.tags.occ_blocks::.cpu.data  3909.738054                       # Average occupied blocks per requestor
system.l2cache.tags.occ_percent::.writebacks     0.000970                       # Average percentage of cache occupancy
system.l2cache.tags.occ_percent::.cpu.inst     0.009419                       # Average percentage of cache occupancy
system.l2cache.tags.occ_percent::.cpu.data     0.954526                       # Average percentage of cache occupancy
system.l2cache.tags.occ_percent::total       0.964916                       # Average percentage of cache occupancy
system.l2cache.tags.occ_task_id_blocks::1024         4096                       # Occupied blocks per task id
system.l2cache.tags.age_task_id_blocks_1024::0           60                       # Occupied blocks per task id
system.l2cache.tags.age_task_id_blocks_1024::2           23                       # Occupied blocks per task id
system.l2cache.tags.age_task_id_blocks_1024::3          250                       # Occupied blocks per task id
system.l2cache.tags.age_task_id_blocks_1024::4         3763                       # Occupied blocks per task id
system.l2cache.tags.occ_task_id_percent::1024            1                       # Percentage of cache occupancy per task id
system.l2cache.tags.tag_accesses               832304                       # Number of tag accesses
system.l2cache.tags.data_accesses              832304                       # Number of data accesses
system.l2cache.tags.power_state.pwrStateResidencyTicks::UNDEFINED 1024958001000                       # Cumulative time (in ticks) in various power states
system.mem_ctrl.avgPriority_.writebacks::samples     24698.00                       # Average QoS priority value for accepted requests
system.mem_ctrl.avgPriority_.cpu.inst::samples       413.00                       # Average QoS priority value for accepted requests
system.mem_ctrl.avgPriority_.cpu.data::samples     28603.00                       # Average QoS priority value for accepted requests
system.mem_ctrl.priorityMinLatency       0.000000017492                       # per QoS priority minimum request to response latency (s)
system.mem_ctrl.priorityMaxLatency       0.039237889492                       # per QoS priority maximum request to response latency (s)
system.mem_ctrl.numReadWriteTurnArounds          1369                       # Number of turnarounds from READ to WRITE
system.mem_ctrl.numWriteReadTurnArounds          1369                       # Number of turnarounds from WRITE to READ
system.mem_ctrl.numStayReadState               119953                       # Number of times bus staying in READ state
system.mem_ctrl.numStayWriteState               23269                       # Number of times bus staying in WRITE state
system.mem_ctrl.readReqs                        29016                       # Number of read requests accepted
system.mem_ctrl.writeReqs                       24698                       # Number of write requests accepted
system.mem_ctrl.readBursts                      29016                       # Number of controller read bursts, including those serviced by the write queue
system.mem_ctrl.writeBursts                     24698                       # Number of controller write bursts, including those merged in the write queue
system.mem_ctrl.servicedByWrQ                       0                       # Number of controller read bursts serviced by the write queue
system.mem_ctrl.mergedWrBursts                      0                       # Number of controller write bursts merged with an existing one
system.mem_ctrl.neitherReadNorWriteReqs             0                       # Number of requests that are neither read nor write
system.mem_ctrl.avgRdQLen                        1.00                       # Average read queue length when enqueuing
system.mem_ctrl.avgWrQLen                       50.00                       # Average write queue length when enqueuing
system.mem_ctrl.numRdRetry                          0                       # Number of times read queue was full causing retry
system.mem_ctrl.numWrRetry                          0                       # Number of times write queue was full causing retry
system.mem_ctrl.readPktSize::0                      0                       # Read request sizes (log2)
system.mem_ctrl.readPktSize::1                      0                       # Read request sizes (log2)
system.mem_ctrl.readPktSize::2                      0                       # Read request sizes (log2)
system.mem_ctrl.readPktSize::3                      0                       # Read request sizes (log2)
system.mem_ctrl.readPktSize::4                      0                       # Read request sizes (log2)
system.mem_ctrl.readPktSize::5                      0                       # Read request sizes (log2)
system.mem_ctrl.readPktSize::6                  29016                       # Read request sizes (log2)
system.mem_ctrl.writePktSize::0                     0                       # Write request sizes (log2)
system.mem_ctrl.writePktSize::1                     0                       # Write request sizes (log2)
system.mem_ctrl.writePktSize::2                     0                       # Write request sizes (log2)
system.mem_ctrl.writePktSize::3                     0                       # Write request sizes (log2)
system.mem_ctrl.writePktSize::4                     0                       # Write request sizes (log2)
system.mem_ctrl.writePktSize::5                     0                       # Write request sizes (log2)
system.mem_ctrl.writePktSize::6                 24698                       # Write request sizes (log2)
system.mem_ctrl.rdQLenPdf::0                    29016                       # What read queue length does an incoming req see
system.mem_ctrl.rdQLenPdf::1                        0                       # What read queue length does an incoming req see
system.mem_ctrl.rdQLenPdf::2                        0                       # What read queue length does an incoming req see
system.mem_ctrl.rdQLenPdf::3                        0                       # What read queue length does an incoming req see
system.mem_ctrl.rdQLenPdf::4                        0                       # What read queue length does an incoming req see
system.mem_ctrl.rdQLenPdf::5                        0                       # What read queue length does an incoming req see
system.mem_ctrl.rdQLenPdf::6                        0                       # What read queue length does an incoming req see
system.mem_ctrl.rdQLenPdf::7                        0                       # What read queue length does an incoming req see
system.mem_ctrl.rdQLenPdf::8                        0                       # What read queue length does an incoming req see
system.mem_ctrl.rdQLenPdf::9                        0                       # What read queue length does an incoming req see
system.mem_ctrl.rdQLenPdf::10                       0                       # What read queue length does an incoming req see
system.mem_ctrl.rdQLenPdf::11                       0                       # What read queue length does an incoming req see
system.mem_ctrl.rdQLenPdf::12                       0                       # What read queue length does an incoming req see
system.mem_ctrl.rdQLenPdf::13                       0                       # What read queue length does an incoming req see
system.mem_ctrl.rdQLenPdf::14                       0                       # What read queue length does an incoming req see
system.mem_ctrl.rdQLenPdf::15                       0                       # What read queue length does an incoming req see
system.mem_ctrl.rdQLenPdf::16                       0                       # What read queue length does an incoming req see
system.mem_ctrl.rdQLenPdf::17                       0                       # What read queue length does an incoming req see
system.mem_ctrl.rdQLenPdf::18                       0                       # What read queue length does an incoming req see
system.mem_ctrl.rdQLenPdf::19                       0                       # What read queue length does an incoming req see
system.mem_ctrl.rdQLenPdf::20                       0                       # What read queue length does an incoming req see
system.mem_ctrl.rdQLenPdf::21                       0                       # What read queue length does an incoming req see
system.mem_ctrl.rdQLenPdf::22                       0                       # What read queue length does an incoming req see
system.mem_ctrl.rdQLenPdf::23                       0                       # What read queue length does an incoming req see
system.mem_ctrl.rdQLenPdf::24                       0                       # What read queue length does an incoming req see
system.mem_ctrl.rdQLenPdf::25                       0                       # What read queue length does an incoming req see
system.mem_ctrl.rdQLenPdf::26                       0                       # What read queue length does an incoming req see
system.mem_ctrl.rdQLenPdf::27                       0                       # What read queue length does an incoming req see
system.mem_ctrl.rdQLenPdf::28                       0                       # What read queue length does an incoming req see
system.mem_ctrl.rdQLenPdf::29                       0                       # What read queue length does an incoming req see
system.mem_ctrl.rdQLenPdf::30                       0                       # What read queue length does an incoming req see
system.mem_ctrl.rdQLenPdf::31                       0                       # What read queue length does an incoming req see
system.mem_ctrl.rdQLenPdf::32                       0                       # What read queue length does an incoming req see
system.mem_ctrl.rdQLenPdf::33                       0                       # What read queue length does an incoming req see
system.mem_ctrl.rdQLenPdf::34                       0                       # What read queue length does an incoming req see
system.mem_ctrl.rdQLenPdf::35                       0                       # What read queue length does an incoming req see
system.mem_ctrl.rdQLenPdf::36                       0                       # What read queue length does an incoming req see
system.mem_ctrl.rdQLenPdf::37                       0                       # What read queue length does an incoming req see
system.mem_ctrl.rdQLenPdf::38                       0                       # What read queue length does an incoming req see
system.mem_ctrl.rdQLenPdf::39                       0                       # What read queue length does an incoming req see
system.mem_ctrl.rdQLenPdf::40                       0                       # What read queue length does an incoming req see
system.mem_ctrl.rdQLenPdf::41                       0                       # What read queue length does an incoming req see
system.mem_ctrl.rdQLenPdf::42                       0                       # What read queue length does an incoming req see
system.mem_ctrl.rdQLenPdf::43                       0                       # What read queue length does an incoming req see
system.mem_ctrl.rdQLenPdf::44                       0                       # What read queue length does an incoming req see
system.mem_ctrl.rdQLenPdf::45                       0                       # What read queue length does an incoming req see
system.mem_ctrl.rdQLenPdf::46                       0                       # What read queue length does an incoming req see
system.mem_ctrl.rdQLenPdf::47                       0                       # What read queue length does an incoming req see
system.mem_ctrl.rdQLenPdf::48                       0                       # What read queue length does an incoming req see
system.mem_ctrl.rdQLenPdf::49                       0                       # What read queue length does an incoming req see
system.mem_ctrl.rdQLenPdf::50                       0                       # What read queue length does an incoming req see
system.mem_ctrl.rdQLenPdf::51                       0                       # What read queue length does an incoming req see
system.mem_ctrl.rdQLenPdf::52                       0                       # What read queue length does an incoming req see
system.mem_ctrl.rdQLenPdf::53                       0                       # What read queue length does an incoming req see
system.mem_ctrl.rdQLenPdf::54                       0                       # What read queue length does an incoming req see
system.mem_ctrl.rdQLenPdf::55                       0                       # What read queue length does an incoming req see
system.mem_ctrl.rdQLenPdf::56                       0                       # What read queue length does an incoming req see
system.mem_ctrl.rdQLenPdf::57                       0                       # What read queue length does an incoming req see
system.mem_ctrl.rdQLenPdf::58                       0                       # What read queue length does an incoming req see
system.mem_ctrl.rdQLenPdf::59                       0                       # What read queue length does an incoming req see
system.mem_ctrl.rdQLenPdf::60                       0                       # What read queue length does an incoming req see
system.mem_ctrl.rdQLenPdf::61                       0                       # What read queue length does an incoming req see
system.mem_ctrl.rdQLenPdf::62                       0                       # What read queue length does an incoming req see
system.mem_ctrl.rdQLenPdf::63                       0                       # What read queue length does an incoming req see
system.mem_ctrl.wrQLenPdf::0                        1                       # What write queue length does an incoming req see
system.mem_ctrl.wrQLenPdf::1                        1                       # What write queue length does an incoming req see
system.mem_ctrl.wrQLenPdf::2                        1                       # What write queue length does an incoming req see
system.mem_ctrl.wrQLenPdf::3                        1                       # What write queue length does an incoming req see
system.mem_ctrl.wrQLenPdf::4                        1                       # What write queue length does an incoming req see
system.mem_ctrl.wrQLenPdf::5                        1                       # What write queue length does an incoming req see
system.mem_ctrl.wrQLenPdf::6                        1                       # What write queue length does an incoming req see
system.mem_ctrl.wrQLenPdf::7                        1                       # What write queue length does an incoming req see
system.mem_ctrl.wrQLenPdf::8                        1                       # What write queue length does an incoming req see
system.mem_ctrl.wrQLenPdf::9                        1                       # What write queue length does an incoming req see
system.mem_ctrl.wrQLenPdf::10                       1                       # What write queue length does an incoming req see
system.mem_ctrl.wrQLenPdf::11                       1                       # What write queue length does an incoming req see
system.mem_ctrl.wrQLenPdf::12                       1                       # What write queue length does an incoming req see
system.mem_ctrl.wrQLenPdf::13                       1                       # What write queue length does an incoming req see
system.mem_ctrl.wrQLenPdf::14                       1                       # What write queue length does an incoming req see
system.mem_ctrl.wrQLenPdf::15                       1                       # What write queue length does an incoming req see
system.mem_ctrl.wrQLenPdf::16                       1                       # What write queue length does an incoming req see
system.mem_ctrl.wrQLenPdf::17                       1                       # What write queue length does an incoming req see
system.mem_ctrl.wrQLenPdf::18                       1                       # What write queue length does an incoming req see
system.mem_ctrl.wrQLenPdf::19                       1                       # What write queue length does an incoming req see
system.mem_ctrl.wrQLenPdf::20                       1                       # What write queue length does an incoming req see
system.mem_ctrl.wrQLenPdf::21                       1                       # What write queue length does an incoming req see
system.mem_ctrl.wrQLenPdf::22                       1                       # What write queue length does an incoming req see
system.mem_ctrl.wrQLenPdf::23                       1                       # What write queue length does an incoming req see
system.mem_ctrl.wrQLenPdf::24                       1                       # What write queue length does an incoming req see
system.mem_ctrl.wrQLenPdf::25                       1                       # What write queue length does an incoming req see
system.mem_ctrl.wrQLenPdf::26                       1                       # What write queue length does an incoming req see
system.mem_ctrl.wrQLenPdf::27                       1                       # What write queue length does an incoming req see
system.mem_ctrl.wrQLenPdf::28                       1                       # What write queue length does an incoming req see
system.mem_ctrl.wrQLenPdf::29                       1                       # What write queue length does an incoming req see
system.mem_ctrl.wrQLenPdf::30                       1                       # What write queue length does an incoming req see
system.mem_ctrl.wrQLenPdf::31                       1                       # What write queue length does an incoming req see
system.mem_ctrl.wrQLenPdf::32                       1                       # What write queue length does an incoming req see
system.mem_ctrl.wrQLenPdf::33                       1                       # What write queue length does an incoming req see
system.mem_ctrl.wrQLenPdf::34                       1                       # What write queue length does an incoming req see
system.mem_ctrl.wrQLenPdf::35                       1                       # What write queue length does an incoming req see
system.mem_ctrl.wrQLenPdf::36                       1                       # What write queue length does an incoming req see
system.mem_ctrl.wrQLenPdf::37                       1                       # What write queue length does an incoming req see
system.mem_ctrl.wrQLenPdf::38                       1                       # What write queue length does an incoming req see
system.mem_ctrl.wrQLenPdf::39                       1                       # What write queue length does an incoming req see
system.mem_ctrl.wrQLenPdf::40                       1                       # What write queue length does an incoming req see
system.mem_ctrl.wrQLenPdf::41                       1                       # What write queue length does an incoming req see
system.mem_ctrl.wrQLenPdf::42                       1                       # What write queue length does an incoming req see
system.mem_ctrl.wrQLenPdf::43                       1                       # What write queue length does an incoming req see
system.mem_ctrl.wrQLenPdf::44                       1                       # What write queue length does an incoming req see
system.mem_ctrl.wrQLenPdf::45                       1                       # What write queue length does an incoming req see
system.mem_ctrl.wrQLenPdf::46                       1                       # What write queue length does an incoming req see
system.mem_ctrl.wrQLenPdf::47                    1368                       # What write queue length does an incoming req see
system.mem_ctrl.wrQLenPdf::48                    1368                       # What write queue length does an incoming req see
system.mem_ctrl.wrQLenPdf::49                    1370                       # What write queue length does an incoming req see
system.mem_ctrl.wrQLenPdf::50                    1370                       # What write queue length does an incoming req see
system.mem_ctrl.wrQLenPdf::51                    1370                       # What write queue length does an incoming req see
system.mem_ctrl.wrQLenPdf::52                    1370                       # What write queue length does an incoming req see
system.mem_ctrl.wrQLenPdf::53                    1370                       # What write queue length does an incoming req see
system.mem_ctrl.wrQLenPdf::54                    1370                       # What write queue length does an incoming req see
system.mem_ctrl.wrQLenPdf::55                    1370                       # What write queue length does an incoming req see
system.mem_ctrl.wrQLenPdf::56                    1370                       # What write queue length does an incoming req see
system.mem_ctrl.wrQLenPdf::57                    1370                       # What write queue length does an incoming req see
system.mem_ctrl.wrQLenPdf::58                    1370                       # What write queue length does an incoming req see
system.mem_ctrl.wrQLenPdf::59                    1370                       # What write queue length does an incoming req see
system.mem_ctrl.wrQLenPdf::60                    1369                       # What write queue length does an incoming req see
system.mem_ctrl.wrQLenPdf::61                    1369                       # What write queue length does an incoming req see
system.mem_ctrl.wrQLenPdf::62                    1369                       # What write queue length does an incoming req see
system.mem_ctrl.wrQLenPdf::63                    1369                       # What write queue length does an incoming req see
system.mem_ctrl.wrQLenPdf::64                    1369                       # What write queue length does an incoming req see
system.mem_ctrl.wrQLenPdf::65                       0                       # What write queue length does an incoming req see
system.mem_ctrl.wrQLenPdf::66                       0                       # What write queue length does an incoming req see
system.mem_ctrl.wrQLenPdf::67                       0                       # What write queue length does an incoming req see
system.mem_ctrl.wrQLenPdf::68                       0                       # What write queue length does an incoming req see
system.mem_ctrl.wrQLenPdf::69                       0                       # What write queue length does an incoming req see
system.mem_ctrl.wrQLenPdf::70                       0                       # What write queue length does an incoming req see
system.mem_ctrl.wrQLenPdf::71                       0                       # What write queue length does an incoming req see
system.mem_ctrl.wrQLenPdf::72                       0                       # What write queue length does an incoming req see
system.mem_ctrl.wrQLenPdf::73                       0                       # What write queue length does an incoming req see
[...]
system.nvm_ctrl.wrQLenPdf::54                       0                       # What write queue length does an incoming req see
system.nvm_ctrl.wrQLenPdf::55                       0                       # What write queue length does an incoming req see
system.nvm_ctrl.wrQLenPdf::56                       0                       # What write queue length does an incoming req see
system.nvm_ctrl.wrQLenPdf::57                       0                       # What write queue length does an incoming req see
system.nvm_ctrl.wrQLenPdf::58                       0                       # What write queue length does an incoming req see
system.nvm_ctrl.wrQLenPdf::59                       0                       # What write queue length does an incoming req see
system.nvm_ctrl.wrQLenPdf::60                       0                       # What write queue length does an incoming req see
system.nvm_ctrl.wrQLenPdf::61                       0                       # What write queue length does an incoming req see
system.nvm_ctrl.wrQLenPdf::62                       0                       # What write queue length does an incoming req see
system.nvm_ctrl.wrQLenPdf::63                       0                       # What write queue length does an incoming req see
system.nvm_ctrl.wrQLenPdf::64                       0                       # What write queue length does an incoming req see
system.nvm_ctrl.wrQLenPdf::65                       0                       # What write queue length does an incoming req see
system.nvm_ctrl.wrQLenPdf::66                       0                       # What write queue length does an incoming req see
system.nvm_ctrl.wrQLenPdf::67                       0                       # What write queue length does an incoming req see
system.nvm_ctrl.wrQLenPdf::68                       0                       # What write queue length does an incoming req see
system.nvm_ctrl.wrQLenPdf::69                       0                       # What write queue length does an incoming req see
system.nvm_ctrl.wrQLenPdf::70                       0                       # What write queue length does an incoming req see
system.nvm_ctrl.wrQLenPdf::71                       0                       # What write queue length does an incoming req see
system.nvm_ctrl.wrQLenPdf::72                       0                       # What write queue length does an incoming req see
system.nvm_ctrl.wrQLenPdf::73                       0                       # What write queue length does an incoming req see
system.nvm_ctrl.wrQLenPdf::74                       0                       # What write queue length does an incoming req see
system.nvm_ctrl.wrQLenPdf::75                       0                       # What write queue length does an incoming req see
system.nvm_ctrl.wrQLenPdf::76                       0                       # What write queue length does an incoming req see
system.nvm_ctrl.wrQLenPdf::77                       0                       # What write queue length does an incoming req see
system.nvm_ctrl.wrQLenPdf::78                       0                       # What write queue length does an incoming req see
system.nvm_ctrl.wrQLenPdf::79                       0                       # What write queue length does an incoming req see
system.nvm_ctrl.wrQLenPdf::80                       0                       # What write queue length does an incoming req see
system.nvm_ctrl.wrQLenPdf::81                       0                       # What write queue length does an incoming req see
system.nvm_ctrl.wrQLenPdf::82                       0                       # What write queue length does an incoming req see
system.nvm_ctrl.wrQLenPdf::83                       0                       # What write queue length does an incoming req see
system.nvm_ctrl.wrQLenPdf::84                       0                       # What write queue length does an incoming req see
system.nvm_ctrl.wrQLenPdf::85                       0                       # What write queue length does an incoming req see
system.nvm_ctrl.wrQLenPdf::86                       0                       # What write queue length does an incoming req see
system.nvm_ctrl.wrQLenPdf::87                       0                       # What write queue length does an incoming req see
system.nvm_ctrl.wrQLenPdf::88                       0                       # What write queue length does an incoming req see
system.nvm_ctrl.wrQLenPdf::89                       0                       # What write queue length does an incoming req see
system.nvm_ctrl.wrQLenPdf::90                       0                       # What write queue length does an incoming req see
system.nvm_ctrl.wrQLenPdf::91                       0                       # What write queue length does an incoming req see
system.nvm_ctrl.wrQLenPdf::92                       0                       # What write queue length does an incoming req see
system.nvm_ctrl.wrQLenPdf::93                       0                       # What write queue length does an incoming req see
system.nvm_ctrl.wrQLenPdf::94                       0                       # What write queue length does an incoming req see
system.nvm_ctrl.wrQLenPdf::95                       0                       # What write queue length does an incoming req see
system.nvm_ctrl.wrQLenPdf::96                       0                       # What write queue length does an incoming req see
system.nvm_ctrl.wrQLenPdf::97                       0                       # What write queue length does an incoming req see
system.nvm_ctrl.wrQLenPdf::98                       0                       # What write queue length does an incoming req see
system.nvm_ctrl.wrQLenPdf::99                       0                       # What write queue length does an incoming req see
system.nvm_ctrl.wrQLenPdf::100                      0                       # What write queue length does an incoming req see
system.nvm_ctrl.wrQLenPdf::101                      0                       # What write queue length does an incoming req see
system.nvm_ctrl.wrQLenPdf::102                      0                       # What write queue length does an incoming req see
system.nvm_ctrl.wrQLenPdf::103                      0                       # What write queue length does an incoming req see
system.nvm_ctrl.wrQLenPdf::104                      0                       # What write queue length does an incoming req see
system.nvm_ctrl.wrQLenPdf::105                      0                       # What write queue length does an incoming req see
system.nvm_ctrl.wrQLenPdf::106                      0                       # What write queue length does an incoming req see
system.nvm_ctrl.wrQLenPdf::107                      0                       # What write queue length does an incoming req see
system.nvm_ctrl.wrQLenPdf::108                      0                       # What write queue length does an incoming req see
system.nvm_ctrl.wrQLenPdf::109                      0                       # What write queue length does an incoming req see
system.nvm_ctrl.wrQLenPdf::110                      0                       # What write queue length does an incoming req see
system.nvm_ctrl.wrQLenPdf::111                      0                       # What write queue length does an incoming req see
system.nvm_ctrl.wrQLenPdf::112                      0                       # What write queue length does an incoming req see
system.nvm_ctrl.wrQLenPdf::113                      0                       # What write queue length does an incoming req see
system.nvm_ctrl.wrQLenPdf::114                      0                       # What write queue length does an incoming req see
system.nvm_ctrl.wrQLenPdf::115                      0                       # What write queue length does an incoming req see
system.nvm_ctrl.wrQLenPdf::116                      0                       # What write queue length does an incoming req see
system.nvm_ctrl.wrQLenPdf::117                      0                       # What write queue length does an incoming req see
system.nvm_ctrl.wrQLenPdf::118                      0                       # What write queue length does an incoming req see
system.nvm_ctrl.wrQLenPdf::119                      0                       # What write queue length does an incoming req see
system.nvm_ctrl.wrQLenPdf::120                      0                       # What write queue length does an incoming req see
system.nvm_ctrl.wrQLenPdf::121                      0                       # What write queue length does an incoming req see
system.nvm_ctrl.wrQLenPdf::122                      0                       # What write queue length does an incoming req see
system.nvm_ctrl.wrQLenPdf::123                      0                       # What write queue length does an incoming req see
system.nvm_ctrl.wrQLenPdf::124                      0                       # What write queue length does an incoming req see
system.nvm_ctrl.wrQLenPdf::125                      0                       # What write queue length does an incoming req see
system.nvm_ctrl.wrQLenPdf::126                      0                       # What write queue length does an incoming req see
system.nvm_ctrl.wrQLenPdf::127                      0                       # What write queue length does an incoming req see
system.nvm_ctrl.bytesReadWrQ                       64                       # Total number of bytes read from write queue
system.nvm_ctrl.bytesReadSys                    42944                       # Total read bytes from the system interface side
system.nvm_ctrl.bytesWrittenSys                  2816                       # Total written bytes from the system interface side
system.nvm_ctrl.avgRdBWSys                       0.04                       # Average system read bandwidth in MiByte/s
system.nvm_ctrl.avgWrBWSys                       0.00                       # Average system write bandwidth in MiByte/s
system.nvm_ctrl.totGap                   1024933081000                       # Total gap between requests
system.nvm_ctrl.avgGap                   1433472840.56                       # Average gap between requests
system.nvm_ctrl.requestorReadBytes::.cpu.data        42880                       # Per-requestor bytes read from memory
system.nvm_ctrl.requestorReadRate::.cpu.data 41835.860550543672                       # Per-requestor bytes read from memory rate (Bytes/sec)
system.nvm_ctrl.requestorReadAccesses::.cpu.data          671                       # Per-requestor read serviced memory accesses
system.nvm_ctrl.requestorWriteAccesses::.writebacks           44                       # Per-requestor write serviced memory accesses
system.nvm_ctrl.requestorReadTotalLat::.cpu.data     12051140                       # Per-requestor read total memory access latency
system.nvm_ctrl.requestorReadAvgLat::.cpu.data     17959.97                       # Per-requestor read average memory access latency
system.nvm_ctrl.requestorWriteAvgLat::.writebacks         0.00                       # Per-requestor write average memory access latency
system.nvm_ctrl.nvm.bytes_read::.cpu.data        42944                       # Number of bytes read from this memory
system.nvm_ctrl.nvm.bytes_read::total           42944                       # Number of bytes read from this memory
system.nvm_ctrl.nvm.bytes_written::.writebacks         2816                       # Number of bytes written to this memory
system.nvm_ctrl.nvm.bytes_written::total         2816                       # Number of bytes written to this memory
system.nvm_ctrl.nvm.num_reads::.cpu.data          671                       # Number of read requests responded to by this memory
system.nvm_ctrl.nvm.num_reads::total              671                       # Number of read requests responded to by this memory
system.nvm_ctrl.nvm.num_writes::.writebacks           44                       # Number of write requests responded to by this memory
system.nvm_ctrl.nvm.num_writes::total              44                       # Number of write requests responded to by this memory
system.nvm_ctrl.nvm.bw_read::.cpu.data          41898                       # Total read bandwidth from this memory (bytes/s)
system.nvm_ctrl.nvm.bw_read::total              41898                       # Total read bandwidth from this memory (bytes/s)
system.nvm_ctrl.nvm.bw_write::.writebacks         2747                       # Write bandwidth from this memory (bytes/s)
system.nvm_ctrl.nvm.bw_write::total              2747                       # Write bandwidth from this memory (bytes/s)
system.nvm_ctrl.nvm.bw_total::.writebacks         2747                       # Total bandwidth to/from this memory (bytes/s)
system.nvm_ctrl.nvm.bw_total::.cpu.data         41898                       # Total bandwidth to/from this memory (bytes/s)
system.nvm_ctrl.nvm.bw_total::total             44646                       # Total bandwidth to/from this memory (bytes/s)
system.nvm_ctrl.nvm.readBursts                    670                       # Number of NVM read bursts
system.nvm_ctrl.nvm.writeBursts                     0                       # Number of NVM write bursts
system.nvm_ctrl.nvm.perBankRdBursts::0             40                       # Per bank write bursts
system.nvm_ctrl.nvm.perBankRdBursts::1             41                       # Per bank write bursts
system.nvm_ctrl.nvm.perBankRdBursts::2             44                       # Per bank write bursts
system.nvm_ctrl.nvm.perBankRdBursts::3             44                       # Per bank write bursts
system.nvm_ctrl.nvm.perBankRdBursts::4             44                       # Per bank write bursts
system.nvm_ctrl.nvm.perBankRdBursts::5             44                       # Per bank write bursts
system.nvm_ctrl.nvm.perBankRdBursts::6             44                       # Per bank write bursts
system.nvm_ctrl.nvm.perBankRdBursts::7             44                       # Per bank write bursts
system.nvm_ctrl.nvm.perBankRdBursts::8             48                       # Per bank write bursts
system.nvm_ctrl.nvm.perBankRdBursts::9             44                       # Per bank write bursts
system.nvm_ctrl.nvm.perBankRdBursts::10            44                       # Per bank write bursts
system.nvm_ctrl.nvm.perBankRdBursts::11            44                       # Per bank write bursts
system.nvm_ctrl.nvm.perBankRdBursts::12            37                       # Per bank write bursts
system.nvm_ctrl.nvm.perBankRdBursts::13            36                       # Per bank write bursts
system.nvm_ctrl.nvm.perBankRdBursts::14            36                       # Per bank write bursts
system.nvm_ctrl.nvm.perBankRdBursts::15            36                       # Per bank write bursts
system.nvm_ctrl.nvm.perBankWrBursts::0              0                       # Per bank write bursts
system.nvm_ctrl.nvm.perBankWrBursts::1              0                       # Per bank write bursts
system.nvm_ctrl.nvm.perBankWrBursts::2              0                       # Per bank write bursts
system.nvm_ctrl.nvm.perBankWrBursts::3              0                       # Per bank write bursts
system.nvm_ctrl.nvm.perBankWrBursts::4              0                       # Per bank write bursts
system.nvm_ctrl.nvm.perBankWrBursts::5              0                       # Per bank write bursts
system.nvm_ctrl.nvm.perBankWrBursts::6              0                       # Per bank write bursts
system.nvm_ctrl.nvm.perBankWrBursts::7              0                       # Per bank write bursts
system.nvm_ctrl.nvm.perBankWrBursts::8              0                       # Per bank write bursts
system.nvm_ctrl.nvm.perBankWrBursts::9              0                       # Per bank write bursts
system.nvm_ctrl.nvm.perBankWrBursts::10             0                       # Per bank write bursts
system.nvm_ctrl.nvm.perBankWrBursts::11             0                       # Per bank write bursts
system.nvm_ctrl.nvm.perBankWrBursts::12             0                       # Per bank write bursts
system.nvm_ctrl.nvm.perBankWrBursts::13             0                       # Per bank write bursts
system.nvm_ctrl.nvm.perBankWrBursts::14             0                       # Per bank write bursts
system.nvm_ctrl.nvm.perBankWrBursts::15             0                       # Per bank write bursts
system.nvm_ctrl.nvm.totQLat                    331500                       # Total ticks spent queuing
system.nvm_ctrl.nvm.totBusLat                 2232440                       # Total ticks spent in databus transfers
system.nvm_ctrl.nvm.totMemAccLat             12051140                       # Total ticks spent from burst creation until serviced by the NVM
system.nvm_ctrl.nvm.avgQLat                    494.78                       # Average queueing delay per NVM burst
system.nvm_ctrl.nvm.avgBusLat                 3332.00                       # Average bus latency per NVM burst
system.nvm_ctrl.nvm.avgMemAccLat             17986.78                       # Average memory access latency per NVM burst
system.nvm_ctrl.nvm.bytesRead                   42880                       # Total number of bytes read from DRAM
system.nvm_ctrl.nvm.bytesWritten                    0                       # Total number of bytes written to DRAM
system.nvm_ctrl.nvm.avgRdBW                      0.04                       # Average DRAM read bandwidth in MiBytes/s
system.nvm_ctrl.nvm.avgWrBW                      0.00                       # Average DRAM write bandwidth in MiBytes/s
system.nvm_ctrl.nvm.peakBW                   19207.00                       # Theoretical peak bandwidth in MiByte/s
system.nvm_ctrl.nvm.busUtil                      0.00                       # NVM Data bus utilization in percentage
system.nvm_ctrl.nvm.busUtilRead                  0.00                       # NVM Data bus read utilization in percentage
system.nvm_ctrl.nvm.busUtilWrite                 0.00                       # NVM Data bus write utilization in percentage
system.nvm_ctrl.nvm.pendingReads::samples          670                       # Reads issued to NVM for which data has not been transferred
system.nvm_ctrl.nvm.pendingReads::0               670    100.00%    100.00% # Reads issued to NVM for which data has not been transferred
system.nvm_ctrl.nvm.pendingReads::total           670                       # Reads issued to NVM for which data has not been transferred
system.nvm_ctrl.nvm.bytesPerBank::samples          170                       # Bytes read within a bank before loading new bank
system.nvm_ctrl.nvm.bytesPerBank::mean     235.294118                       # Bytes read within a bank before loading new bank
system.nvm_ctrl.nvm.bytesPerBank::gmean    221.050976                       # Bytes read within a bank before loading new bank
system.nvm_ctrl.nvm.bytesPerBank::stdev     58.913802                       # Bytes read within a bank before loading new bank
system.nvm_ctrl.nvm.bytesPerBank::64-65            17     10.00%     10.00% # Bytes read within a bank before loading new bank
system.nvm_ctrl.nvm.bytesPerBank::128-129            2      1.18%     11.18% # Bytes read within a bank before loading new bank
system.nvm_ctrl.nvm.bytesPerBank::256-257          151     88.82%    100.00% # Bytes read within a bank before loading new bank
system.nvm_ctrl.nvm.bytesPerBank::total           170                       # Bytes read within a bank before loading new bank
system.nvm_ctrl.nvm.power_state.pwrStateResidencyTicks::UNDEFINED 1024958001000                       # Cumulative time (in ticks) in various power states
system.nvm_ctrl.power_state.pwrStateResidencyTicks::UNDEFINED 1024958001000                       # Cumulative time (in ticks) in various power states

---------- End Simulation Statistics   ----------
