
---------- Begin Simulation Statistics ----------
final_tick                               277221861000                       # Number of ticks from beginning of simulation (restored from checkpoints and never reset)
host_inst_rate                                 362320                       # Simulator instruction rate (inst/s)
host_mem_usage                                1476148                       # Number of bytes of host memory used
host_op_rate                                   600812                       # Simulator op (including micro ops) rate (op/s)
host_seconds                                   757.67                       # Real time elapsed on the host
host_tick_rate                              365889291                       # Simulator tick rate (ticks/s)
sim_freq                                 1000000000000                       # Frequency of simulated ticks
sim_insts                                   274517364                       # Number of instructions simulated
sim_ops                                     455214965                       # Number of ops (including micro ops) simulated
sim_seconds                                  0.277222                       # Number of seconds simulated
sim_ticks                                277221861000                       # Number of ticks simulated
system.cpu0.Branches                          7704529                       # Number of branches fetched
system.cpu0.committedInsts                   67581381                       # Number of instructions committed
system.cpu0.committedOps                    112089420                       # Number of ops (including micro ops) committed
system.cpu0.idle_fraction                    0.049547                       # Percentage of idle cycles
system.cpu0.not_idle_fraction                0.950453                       # Percentage of non-idle cycles
system.cpu0.numCycles                       263486260                       # number of cpu cycles simulated
system.cpu0.numWorkItemsCompleted                   0                       # number of work items this cpu completed
system.cpu0.numWorkItemsStarted                     0                       # number of work items this cpu started
system.cpu0.num_busy_cycles              250431221.254002                       # Number of busy cycles
system.cpu0.num_cc_register_reads            41671929                       # number of times the CC registers were read
system.cpu0.num_cc_register_writes           41797677                       # number of times the CC registers were written
system.cpu0.num_conditional_control_insts      7563842                       # number of instructions that are conditional controls
system.cpu0.num_fp_alu_accesses                 10991                       # Number of float alu accesses
system.cpu0.num_fp_insts                        10991                       # number of float instructions
system.cpu0.num_fp_register_reads               18172                       # number of times the floating registers were read
system.cpu0.num_fp_register_writes               9401                       # number of times the floating registers were written
system.cpu0.num_func_calls                     116866                       # number of times a function call or return occured
system.cpu0.num_idle_cycles              13055038.745998                       # Number of idle cycles
system.cpu0.num_int_alu_accesses            111983392                       # Number of integer alu accesses
system.cpu0.num_int_insts                   111983392                       # number of integer instructions
system.cpu0.num_int_register_reads          200265153                       # number of times the integer registers were read
system.cpu0.num_int_register_writes          99946959                       # number of times the integer registers were written
system.cpu0.num_load_insts                   23249232                       # Number of load instructions
system.cpu0.num_mem_refs                     27581143                       # number of memory refs
system.cpu0.num_store_insts                   4331911                       # Number of store instructions
system.cpu0.num_vec_alu_accesses                    0                       # Number of vector alu accesses
system.cpu0.num_vec_insts                           0                       # number of vector instructions
system.cpu0.num_vec_register_reads                  0                       # number of times the vector registers were read
system.cpu0.num_vec_register_writes                 0                       # number of times the vector registers were written
system.cpu0.op_class::No_OpClass                61052      0.05%      0.05% # Class of executed instruction
system.cpu0.op_class::IntAlu                 84438573     75.33%     75.39% # Class of executed instruction
system.cpu0.op_class::IntMult                     707      0.00%     75.39% # Class of executed instruction
system.cpu0.op_class::IntDiv                      217      0.00%     75.39% # Class of executed instruction
system.cpu0.op_class::FloatAdd                    548      0.00%     75.39% # Class of executed instruction
system.cpu0.op_class::FloatCmp                      0      0.00%     75.39% # Class of executed instruction
system.cpu0.op_class::FloatCvt                      0      0.00%     75.39% # Class of executed instruction
system.cpu0.op_class::FloatMult                     0      0.00%     75.39% # Class of executed instruction
system.cpu0.op_class::FloatMultAcc                  0      0.00%     75.39% # Class of executed instruction
system.cpu0.op_class::FloatDiv                      0      0.00%     75.39% # Class of executed instruction
system.cpu0.op_class::FloatMisc                     0      0.00%     75.39% # Class of executed instruction
system.cpu0.op_class::FloatSqrt                     0      0.00%     75.39% # Class of executed instruction
system.cpu0.op_class::SimdAdd                       0      0.00%     75.39% # Class of executed instruction
system.cpu0.op_class::SimdAddAcc                    0      0.00%     75.39% # Class of executed instruction
system.cpu0.op_class::SimdAlu                    1712      0.00%     75.39% # Class of executed instruction
system.cpu0.op_class::SimdCmp                       0      0.00%     75.39% # Class of executed instruction
system.cpu0.op_class::SimdCvt                    1662      0.00%     75.39% # Class of executed instruction
system.cpu0.op_class::SimdMisc                   3856      0.00%     75.39% # Class of executed instruction
system.cpu0.op_class::SimdMult                      0      0.00%     75.39% # Class of executed instruction
system.cpu0.op_class::SimdMultAcc                   0      0.00%     75.39% # Class of executed instruction
system.cpu0.op_class::SimdShift                     0      0.00%     75.39% # Class of executed instruction
system.cpu0.op_class::SimdShiftAcc                  0      0.00%     75.39% # Class of executed instruction
system.cpu0.op_class::SimdDiv                       0      0.00%     75.39% # Class of executed instruction
system.cpu0.op_class::SimdSqrt                      0      0.00%     75.39% # Class of executed instruction
system.cpu0.op_class::SimdFloatAdd                  0      0.00%     75.39% # Class of executed instruction
system.cpu0.op_class::SimdFloatAlu                  0      0.00%     75.39% # Class of executed instruction
system.cpu0.op_class::SimdFloatCmp                  0      0.00%     75.39% # Class of executed instruction
system.cpu0.op_class::SimdFloatCvt                  0      0.00%     75.39% # Class of executed instruction
system.cpu0.op_class::SimdFloatDiv                  0      0.00%     75.39% # Class of executed instruction
system.cpu0.op_class::SimdFloatMisc                 0      0.00%     75.39% # Class of executed instruction
system.cpu0.op_class::SimdFloatMult                 0      0.00%     75.39% # Class of executed instruction
system.cpu0.op_class::SimdFloatMultAcc              0      0.00%     75.39% # Class of executed instruction
system.cpu0.op_class::SimdFloatSqrt                 0      0.00%     75.39% # Class of executed instruction
system.cpu0.op_class::SimdReduceAdd                 0      0.00%     75.39% # Class of executed instruction
system.cpu0.op_class::SimdReduceAlu                 0      0.00%     75.39% # Class of executed instruction
system.cpu0.op_class::SimdReduceCmp                 0      0.00%     75.39% # Class of executed instruction
system.cpu0.op_class::SimdFloatReduceAdd            0      0.00%     75.39% # Class of executed instruction
system.cpu0.op_class::SimdFloatReduceCmp            0      0.00%     75.39% # Class of executed instruction
system.cpu0.op_class::SimdAes                       0      0.00%     75.39% # Class of executed instruction
system.cpu0.op_class::SimdAesMix                    0      0.00%     75.39% # Class of executed instruction
system.cpu0.op_class::SimdSha1Hash                  0      0.00%     75.39% # Class of executed instruction
system.cpu0.op_class::SimdSha1Hash2                 0      0.00%     75.39% # Class of executed instruction
system.cpu0.op_class::SimdSha256Hash                0      0.00%     75.39% # Class of executed instruction
system.cpu0.op_class::SimdSha256Hash2               0      0.00%     75.39% # Class of executed instruction
system.cpu0.op_class::SimdShaSigma2                 0      0.00%     75.39% # Class of executed instruction
system.cpu0.op_class::SimdShaSigma3                 0      0.00%     75.39% # Class of executed instruction
system.cpu0.op_class::SimdPredAlu                   0      0.00%     75.39% # Class of executed instruction
system.cpu0.op_class::MemRead                23248110     20.74%     96.13% # Class of executed instruction
system.cpu0.op_class::MemWrite                4331175      3.86%    100.00% # Class of executed instruction
system.cpu0.op_class::FloatMemRead               1122      0.00%    100.00% # Class of executed instruction
system.cpu0.op_class::FloatMemWrite               736      0.00%    100.00% # Class of executed instruction
system.cpu0.op_class::IprAccess                     0      0.00%    100.00% # Class of executed instruction
system.cpu0.op_class::InstPrefetch                  0      0.00%    100.00% # Class of executed instruction
system.cpu0.op_class::total                 112089470                       # Class of executed instruction
system.cpu0.workload.numSyscalls                   46                       # Number of system calls
system.cpu1.Branches                          8089426                       # Number of branches fetched
system.cpu1.committedInsts                   71066570                       # Number of instructions committed
system.cpu1.committedOps                    117836509                       # Number of ops (including micro ops) committed
system.cpu1.idle_fraction                    0.001775                       # Percentage of idle cycles
system.cpu1.not_idle_fraction                0.998225                       # Percentage of non-idle cycles
system.cpu1.numCycles                       277221861                       # number of cpu cycles simulated
system.cpu1.numWorkItemsCompleted                   0                       # number of work items this cpu completed
system.cpu1.numWorkItemsStarted                     0                       # number of work items this cpu started
system.cpu1.num_busy_cycles              276729723.999002                       # Number of busy cycles
system.cpu1.num_cc_register_reads            43760999                       # number of times the CC registers were read
system.cpu1.num_cc_register_writes           43954562                       # number of times the CC registers were written
system.cpu1.num_conditional_control_insts      7949237                       # number of instructions that are conditional controls
system.cpu1.num_fp_alu_accesses                  2540                       # Number of float alu accesses
system.cpu1.num_fp_insts                         2540                       # number of float instructions
system.cpu1.num_fp_register_reads                4357                       # number of times the floating registers were read
system.cpu1.num_fp_register_writes               2256                       # number of times the floating registers were written
system.cpu1.num_func_calls                     119101                       # number of times a function call or return occured
system.cpu1.num_idle_cycles              492137.000998                       # Number of idle cycles
system.cpu1.num_int_alu_accesses            117735171                       # Number of integer alu accesses
system.cpu1.num_int_insts                   117735171                       # number of integer instructions
system.cpu1.num_int_register_reads          210508494                       # number of times the integer registers were read
system.cpu1.num_int_register_writes         105102004                       # number of times the integer registers were written
system.cpu1.num_load_insts                   24465374                       # Number of load instructions
system.cpu1.num_mem_refs                     29009374                       # number of memory refs
system.cpu1.num_store_insts                   4544000                       # Number of store instructions
system.cpu1.num_vec_alu_accesses                    0                       # Number of vector alu accesses
system.cpu1.num_vec_insts                           0                       # number of vector instructions
system.cpu1.num_vec_register_reads                  0                       # number of times the vector registers were read
system.cpu1.num_vec_register_writes                 0                       # number of times the vector registers were written
system.cpu1.op_class::No_OpClass                60229      0.05%      0.05% # Class of executed instruction
system.cpu1.op_class::IntAlu                 88764739     75.33%     75.38% # Class of executed instruction
system.cpu1.op_class::IntMult                     122      0.00%     75.38% # Class of executed instruction
system.cpu1.op_class::IntDiv                      189      0.00%     75.38% # Class of executed instruction
system.cpu1.op_class::FloatAdd                    109      0.00%     75.38% # Class of executed instruction
system.cpu1.op_class::FloatCmp                      0      0.00%     75.38% # Class of executed instruction
system.cpu1.op_class::FloatCvt                      0      0.00%     75.38% # Class of executed instruction
system.cpu1.op_class::FloatMult                     0      0.00%     75.38% # Class of executed instruction
system.cpu1.op_class::FloatMultAcc                  0      0.00%     75.38% # Class of executed instruction
system.cpu1.op_class::FloatDiv                      0      0.00%     75.38% # Class of executed instruction
system.cpu1.op_class::FloatMisc                     0      0.00%     75.38% # Class of executed instruction
system.cpu1.op_class::FloatSqrt                     0      0.00%     75.38% # Class of executed instruction
system.cpu1.op_class::SimdAdd                       0      0.00%     75.38% # Class of executed instruction
system.cpu1.op_class::SimdAddAcc                    0      0.00%     75.38% # Class of executed instruction
system.cpu1.op_class::SimdAlu                     420      0.00%     75.38% # Class of executed instruction
system.cpu1.op_class::SimdCmp                       0      0.00%     75.38% # Class of executed instruction
system.cpu1.op_class::SimdCvt                     416      0.00%     75.38% # Class of executed instruction
system.cpu1.op_class::SimdMisc                    939      0.00%     75.38% # Class of executed instruction
system.cpu1.op_class::SimdMult                      0      0.00%     75.38% # Class of executed instruction
system.cpu1.op_class::SimdMultAcc                   0      0.00%     75.38% # Class of executed instruction
system.cpu1.op_class::SimdShift                     0      0.00%     75.38% # Class of executed instruction
system.cpu1.op_class::SimdShiftAcc                  0      0.00%     75.38% # Class of executed instruction
system.cpu1.op_class::SimdDiv                       0      0.00%     75.38% # Class of executed instruction
system.cpu1.op_class::SimdSqrt                      0      0.00%     75.38% # Class of executed instruction
system.cpu1.op_class::SimdFloatAdd                  0      0.00%     75.38% # Class of executed instruction
system.cpu1.op_class::SimdFloatAlu                  0      0.00%     75.38% # Class of executed instruction
system.cpu1.op_class::SimdFloatCmp                  0      0.00%     75.38% # Class of executed instruction
system.cpu1.op_class::SimdFloatCvt                  0      0.00%     75.38% # Class of executed instruction
system.cpu1.op_class::SimdFloatDiv                  0      0.00%     75.38% # Class of executed instruction
system.cpu1.op_class::SimdFloatMisc                 0      0.00%     75.38% # Class of executed instruction
system.cpu1.op_class::SimdFloatMult                 0      0.00%     75.38% # Class of executed instruction
system.cpu1.op_class::SimdFloatMultAcc              0      0.00%     75.38% # Class of executed instruction
system.cpu1.op_class::SimdFloatSqrt                 0      0.00%     75.38% # Class of executed instruction
system.cpu1.op_class::SimdReduceAdd                 0      0.00%     75.38% # Class of executed instruction
system.cpu1.op_class::SimdReduceAlu                 0      0.00%     75.38% # Class of executed instruction
system.cpu1.op_class::SimdReduceCmp                 0      0.00%     75.38% # Class of executed instruction
system.cpu1.op_class::SimdFloatReduceAdd            0      0.00%     75.38% # Class of executed instruction
system.cpu1.op_class::SimdFloatReduceCmp            0      0.00%     75.38% # Class of executed instruction
system.cpu1.op_class::SimdAes                       0      0.00%     75.38% # Class of executed instruction
system.cpu1.op_class::SimdAesMix                    0      0.00%     75.38% # Class of executed instruction
system.cpu1.op_class::SimdSha1Hash                  0      0.00%     75.38% # Class of executed instruction
system.cpu1.op_class::SimdSha1Hash2                 0      0.00%     75.38% # Class of executed instruction
system.cpu1.op_class::SimdSha256Hash                0      0.00%     75.38% # Class of executed instruction
system.cpu1.op_class::SimdSha256Hash2               0      0.00%     75.38% # Class of executed instruction
system.cpu1.op_class::SimdShaSigma2                 0      0.00%     75.38% # Class of executed instruction
system.cpu1.op_class::SimdShaSigma3                 0      0.00%     75.38% # Class of executed instruction
system.cpu1.op_class::SimdPredAlu                   0      0.00%     75.38% # Class of executed instruction
system.cpu1.op_class::MemRead                24465109     20.76%     96.14% # Class of executed instruction
system.cpu1.op_class::MemWrite                4543924      3.86%    100.00% # Class of executed instruction
system.cpu1.op_class::FloatMemRead                265      0.00%    100.00% # Class of executed instruction
system.cpu1.op_class::FloatMemWrite                76      0.00%    100.00% # Class of executed instruction
system.cpu1.op_class::IprAccess                     0      0.00%    100.00% # Class of executed instruction
system.cpu1.op_class::InstPrefetch                  0      0.00%    100.00% # Class of executed instruction
system.cpu1.op_class::total                 117836537                       # Class of executed instruction
system.cpu2.Branches                          7755756                       # Number of branches fetched
system.cpu2.committedInsts                   68133866                       # Number of instructions committed
system.cpu2.committedOps                    112974693                       # Number of ops (including micro ops) committed
system.cpu2.idle_fraction                    0.041289                       # Percentage of idle cycles
system.cpu2.not_idle_fraction                0.958711                       # Percentage of non-idle cycles
system.cpu2.numCycles                       266268502                       # number of cpu cycles simulated
system.cpu2.numWorkItemsCompleted                   0                       # number of work items this cpu completed
system.cpu2.numWorkItemsStarted                     0                       # number of work items this cpu started
system.cpu2.num_busy_cycles              255274645.955076                       # Number of busy cycles
system.cpu2.num_cc_register_reads            41955963                       # number of times the CC registers were read
system.cpu2.num_cc_register_writes           42140446                       # number of times the CC registers were written
system.cpu2.num_conditional_control_insts      7621271                       # number of instructions that are conditional controls
system.cpu2.num_fp_alu_accesses                  2540                       # Number of float alu accesses
system.cpu2.num_fp_insts                         2540                       # number of float instructions
system.cpu2.num_fp_register_reads                4357                       # number of times the floating registers were read
system.cpu2.num_fp_register_writes               2256                       # number of times the floating registers were written
system.cpu2.num_func_calls                     114241                       # number of times a function call or return occured
system.cpu2.num_idle_cycles              10993856.044924                       # Number of idle cycles
system.cpu2.num_int_alu_accesses            112877405                       # Number of integer alu accesses
system.cpu2.num_int_insts                   112877405                       # number of integer instructions
system.cpu2.num_int_register_reads          201823014                       # number of times the integer registers were read
system.cpu2.num_int_register_writes         100765012                       # number of times the integer registers were written
system.cpu2.num_load_insts                   23455400                       # Number of load instructions
system.cpu2.num_mem_refs                     27812296                       # number of memory refs
system.cpu2.num_store_insts                   4356896                       # Number of store instructions
system.cpu2.num_vec_alu_accesses                    0                       # Number of vector alu accesses
system.cpu2.num_vec_insts                           0                       # number of vector instructions
system.cpu2.num_vec_register_reads                  0                       # number of times the vector registers were read
system.cpu2.num_vec_register_writes                 0                       # number of times the vector registers were written
system.cpu2.op_class::No_OpClass                57799      0.05%      0.05% # Class of executed instruction
system.cpu2.op_class::IntAlu                 85102431     75.33%     75.38% # Class of executed instruction
system.cpu2.op_class::IntMult                     122      0.00%     75.38% # Class of executed instruction
system.cpu2.op_class::IntDiv                      189      0.00%     75.38% # Class of executed instruction
system.cpu2.op_class::FloatAdd                    109      0.00%     75.38% # Class of executed instruction
system.cpu2.op_class::FloatCmp                      0      0.00%     75.38% # Class of executed instruction
system.cpu2.op_class::FloatCvt                      0      0.00%     75.38% # Class of executed instruction
system.cpu2.op_class::FloatMult                     0      0.00%     75.38% # Class of executed instruction
system.cpu2.op_class::FloatMultAcc                  0      0.00%     75.38% # Class of executed instruction
system.cpu2.op_class::FloatDiv                      0      0.00%     75.38% # Class of executed instruction
system.cpu2.op_class::FloatMisc                     0      0.00%     75.38% # Class of executed instruction
system.cpu2.op_class::FloatSqrt                     0      0.00%     75.38% # Class of executed instruction
system.cpu2.op_class::SimdAdd                       0      0.00%     75.38% # Class of executed instruction
system.cpu2.op_class::SimdAddAcc                    0      0.00%     75.38% # Class of executed instruction
system.cpu2.op_class::SimdAlu                     420      0.00%     75.38% # Class of executed instruction
system.cpu2.op_class::SimdCmp                       0      0.00%     75.38% # Class of executed instruction
system.cpu2.op_class::SimdCvt                     416      0.00%     75.38% # Class of executed instruction
system.cpu2.op_class::SimdMisc                    939      0.00%     75.38% # Class of executed instruction
system.cpu2.op_class::SimdMult                      0      0.00%     75.38% # Class of executed instruction
system.cpu2.op_class::SimdMultAcc                   0      0.00%     75.38% # Class of executed instruction
system.cpu2.op_class::SimdShift                     0      0.00%     75.38% # Class of executed instruction
system.cpu2.op_class::SimdShiftAcc                  0      0.00%     75.38% # Class of executed instruction
system.cpu2.op_class::SimdDiv                       0      0.00%     75.38% # Class of executed instruction
system.cpu2.op_class::SimdSqrt                      0      0.00%     75.38% # Class of executed instruction
system.cpu2.op_class::SimdFloatAdd                  0      0.00%     75.38% # Class of executed instruction
system.cpu2.op_class::SimdFloatAlu                  0      0.00%     75.38% # Class of executed instruction
system.cpu2.op_class::SimdFloatCmp                  0      0.00%     75.38% # Class of executed instruction
system.cpu2.op_class::SimdFloatCvt                  0      0.00%     75.38% # Class of executed instruction
system.cpu2.op_class::SimdFloatDiv                  0      0.00%     75.38% # Class of executed instruction
system.cpu2.op_class::SimdFloatMisc                 0      0.00%     75.38% # Class of executed instruction
system.cpu2.op_class::SimdFloatMult                 0      0.00%     75.38% # Class of executed instruction
system.cpu2.op_class::SimdFloatMultAcc              0      0.00%     75.38% # Class of executed instruction
system.cpu2.op_class::SimdFloatSqrt                 0      0.00%     75.38% # Class of executed instruction
system.cpu2.op_class::SimdReduceAdd                 0      0.00%     75.38% # Class of executed instruction
system.cpu2.op_class::SimdReduceAlu                 0      0.00%     75.38% # Class of executed instruction
system.cpu2.op_class::SimdReduceCmp                 0      0.00%     75.38% # Class of executed instruction
system.cpu2.op_class::SimdFloatReduceAdd            0      0.00%     75.38% # Class of executed instruction
system.cpu2.op_class::SimdFloatReduceCmp            0      0.00%     75.38% # Class of executed instruction
system.cpu2.op_class::SimdAes                       0      0.00%     75.38% # Class of executed instruction
system.cpu2.op_class::SimdAesMix                    0      0.00%     75.38% # Class of executed instruction
system.cpu2.op_class::SimdSha1Hash                  0      0.00%     75.38% # Class of executed instruction
system.cpu2.op_class::SimdSha1Hash2                 0      0.00%     75.38% # Class of executed instruction
system.cpu2.op_class::SimdSha256Hash                0      0.00%     75.38% # Class of executed instruction
system.cpu2.op_class::SimdSha256Hash2               0      0.00%     75.38% # Class of executed instruction
system.cpu2.op_class::SimdShaSigma2                 0      0.00%     75.38% # Class of executed instruction
system.cpu2.op_class::SimdShaSigma3                 0      0.00%     75.38% # Class of executed instruction
system.cpu2.op_class::SimdPredAlu                   0      0.00%     75.38% # Class of executed instruction
system.cpu2.op_class::MemRead                23455135     20.76%     96.14% # Class of executed instruction
system.cpu2.op_class::MemWrite                4356820      3.86%    100.00% # Class of executed instruction
system.cpu2.op_class::FloatMemRead                265      0.00%    100.00% # Class of executed instruction
system.cpu2.op_class::FloatMemWrite                76      0.00%    100.00% # Class of executed instruction
system.cpu2.op_class::IprAccess                     0      0.00%    100.00% # Class of executed instruction
system.cpu2.op_class::InstPrefetch                  0      0.00%    100.00% # Class of executed instruction
system.cpu2.op_class::total                 112974721                       # Class of executed instruction
system.cpu3.Branches                          7710434                       # Number of branches fetched
system.cpu3.committedInsts                   67735547                       # Number of instructions committed
system.cpu3.committedOps                    112314343                       # Number of ops (including micro ops) committed
system.cpu3.idle_fraction                    0.048568                       # Percentage of idle cycles
system.cpu3.not_idle_fraction                0.951432                       # Percentage of non-idle cycles
system.cpu3.numCycles                       264250694                       # number of cpu cycles simulated
system.cpu3.numWorkItemsCompleted                   0                       # number of work items this cpu completed
system.cpu3.numWorkItemsStarted                     0                       # number of work items this cpu started
system.cpu3.num_busy_cycles              251416497.990673                       # Number of busy cycles
system.cpu3.num_cc_register_reads            41710757                       # number of times the CC registers were read
system.cpu3.num_cc_register_writes           41894038                       # number of times the CC registers were written
system.cpu3.num_conditional_control_insts      7576718                       # number of instructions that are conditional controls
system.cpu3.num_fp_alu_accesses                  2540                       # Number of float alu accesses
system.cpu3.num_fp_insts                         2540                       # number of float instructions
system.cpu3.num_fp_register_reads                4357                       # number of times the floating registers were read
system.cpu3.num_fp_register_writes               2256                       # number of times the floating registers were written
system.cpu3.num_func_calls                     113581                       # number of times a function call or return occured
system.cpu3.num_idle_cycles              12834196.009327                       # Number of idle cycles
system.cpu3.num_int_alu_accesses            112217605                       # Number of integer alu accesses
system.cpu3.num_int_insts                   112217605                       # number of integer instructions
system.cpu3.num_int_register_reads          200643344                       # number of times the integer registers were read
system.cpu3.num_int_register_writes         100175944                       # number of times the integer registers were written
system.cpu3.num_load_insts                   23318227                       # Number of load instructions
system.cpu3.num_mem_refs                     27649713                       # number of memory refs
system.cpu3.num_store_insts                   4331486                       # Number of store instructions
system.cpu3.num_vec_alu_accesses                    0                       # Number of vector alu accesses
system.cpu3.num_vec_insts                           0                       # number of vector instructions
system.cpu3.num_vec_register_reads                  0                       # number of times the vector registers were read
system.cpu3.num_vec_register_writes                 0                       # number of times the vector registers were written
system.cpu3.op_class::No_OpClass                57469      0.05%      0.05% # Class of executed instruction
system.cpu3.op_class::IntAlu                 84604994     75.33%     75.38% # Class of executed instruction
system.cpu3.op_class::IntMult                     122      0.00%     75.38% # Class of executed instruction
system.cpu3.op_class::IntDiv                      189      0.00%     75.38% # Class of executed instruction
system.cpu3.op_class::FloatAdd                    109      0.00%     75.38% # Class of executed instruction
system.cpu3.op_class::FloatCmp                      0      0.00%     75.38% # Class of executed instruction
system.cpu3.op_class::FloatCvt                      0      0.00%     75.38% # Class of executed instruction
system.cpu3.op_class::FloatMult                     0      0.00%     75.38% # Class of executed instruction
system.cpu3.op_class::FloatMultAcc                  0      0.00%     75.38% # Class of executed instruction
system.cpu3.op_class::FloatDiv                      0      0.00%     75.38% # Class of executed instruction
system.cpu3.op_class::FloatMisc                     0      0.00%     75.38% # Class of executed instruction
system.cpu3.op_class::FloatSqrt                     0      0.00%     75.38% # Class of executed instruction
system.cpu3.op_class::SimdAdd                       0      0.00%     75.38% # Class of executed instruction
system.cpu3.op_class::SimdAddAcc                    0      0.00%     75.38% # Class of executed instruction
system.cpu3.op_class::SimdAlu                     420      0.00%     75.38% # Class of executed instruction
system.cpu3.op_class::SimdCmp                       0      0.00%     75.38% # Class of executed instruction
system.cpu3.op_class::SimdCvt                     416      0.00%     75.38% # Class of executed instruction
system.cpu3.op_class::SimdMisc                    939      0.00%     75.38% # Class of executed instruction
system.cpu3.op_class::SimdMult                      0      0.00%     75.38% # Class of executed instruction
system.cpu3.op_class::SimdMultAcc                   0      0.00%     75.38% # Class of executed instruction
system.cpu3.op_class::SimdShift                     0      0.00%     75.38% # Class of executed instruction
system.cpu3.op_class::SimdShiftAcc                  0      0.00%     75.38% # Class of executed instruction
system.cpu3.op_class::SimdDiv                       0      0.00%     75.38% # Class of executed instruction
system.cpu3.op_class::SimdSqrt                      0      0.00%     75.38% # Class of executed instruction
system.cpu3.op_class::SimdFloatAdd                  0      0.00%     75.38% # Class of executed instruction
system.cpu3.op_class::SimdFloatAlu                  0      0.00%     75.38% # Class of executed instruction
system.cpu3.op_class::SimdFloatCmp                  0      0.00%     75.38% # Class of executed instruction
system.cpu3.op_class::SimdFloatCvt                  0      0.00%     75.38% # Class of executed instruction
system.cpu3.op_class::SimdFloatDiv                  0      0.00%     75.38% # Class of executed instruction
system.cpu3.op_class::SimdFloatMisc                 0      0.00%     75.38% # Class of executed instruction
system.cpu3.op_class::SimdFloatMult                 0      0.00%     75.38% # Class of executed instruction
system.cpu3.op_class::SimdFloatMultAcc              0      0.00%     75.38% # Class of executed instruction
system.cpu3.op_class::SimdFloatSqrt                 0      0.00%     75.38% # Class of executed instruction
system.cpu3.op_class::SimdReduceAdd                 0      0.00%     75.38% # Class of executed instruction
system.cpu3.op_class::SimdReduceAlu                 0      0.00%     75.38% # Class of executed instruction
system.cpu3.op_class::SimdReduceCmp                 0      0.00%     75.38% # Class of executed instruction
system.cpu3.op_class::SimdFloatReduceAdd            0      0.00%     75.38% # Class of executed instruction
system.cpu3.op_class::SimdFloatReduceCmp            0      0.00%     75.38% # Class of executed instruction
system.cpu3.op_class::SimdAes                       0      0.00%     75.38% # Class of executed instruction
system.cpu3.op_class::SimdAesMix                    0      0.00%     75.38% # Class of executed instruction
system.cpu3.op_class::SimdSha1Hash                  0      0.00%     75.38% # Class of executed instruction
system.cpu3.op_class::SimdSha1Hash2                 0      0.00%     75.38% # Class of executed instruction
system.cpu3.op_class::SimdSha256Hash                0      0.00%     75.38% # Class of executed instruction
system.cpu3.op_class::SimdSha256Hash2               0      0.00%     75.38% # Class of executed instruction
system.cpu3.op_class::SimdShaSigma2                 0      0.00%     75.38% # Class of executed instruction
system.cpu3.op_class::SimdShaSigma3                 0      0.00%     75.38% # Class of executed instruction
system.cpu3.op_class::SimdPredAlu                   0      0.00%     75.38% # Class of executed instruction
system.cpu3.op_class::MemRead                23317962     20.76%     96.14% # Class of executed instruction
system.cpu3.op_class::MemWrite                4331410      3.86%    100.00% # Class of executed instruction
system.cpu3.op_class::FloatMemRead                265      0.00%    100.00% # Class of executed instruction
system.cpu3.op_class::FloatMemWrite                76      0.00%    100.00% # Class of executed instruction
system.cpu3.op_class::IprAccess                     0      0.00%    100.00% # Class of executed instruction
system.cpu3.op_class::InstPrefetch                  0      0.00%    100.00% # Class of executed instruction
system.cpu3.op_class::total                 112314371                       # Class of executed instruction
system.noc_network.Directory.incomplete_times_seqr       453203                      
system.noc_network.Directory.miss_latency_hist_seqr.first_response_to_completion::bucket_size            8                      
system.noc_network.Directory.miss_latency_hist_seqr.first_response_to_completion::max_bucket           79                      
system.noc_network.Directory.miss_latency_hist_seqr.first_response_to_completion::samples            1                      
system.noc_network.Directory.miss_latency_hist_seqr.first_response_to_completion::mean           64                      
system.noc_network.Directory.miss_latency_hist_seqr.first_response_to_completion::gmean    64.000000                      
system.noc_network.Directory.miss_latency_hist_seqr.first_response_to_completion::stdev          nan                      
system.noc_network.Directory.miss_latency_hist_seqr.first_response_to_completion |           0      0.00%      0.00% |           0      0.00%      0.00% |           0      0.00%      0.00% |           0      0.00%      0.00% |           0      0.00%      0.00% |           0      0.00%      0.00% |           0      0.00%      0.00% |           0      0.00%      0.00% |           1    100.00%    100.00% |           0      0.00%    100.00%
system.noc_network.Directory.miss_latency_hist_seqr.first_response_to_completion::total            1                      
system.noc_network.Directory.miss_latency_hist_seqr.forward_to_first_response::bucket_size            1                      
system.noc_network.Directory.miss_latency_hist_seqr.forward_to_first_response::max_bucket            9                      
system.noc_network.Directory.miss_latency_hist_seqr.forward_to_first_response::samples            1                      
system.noc_network.Directory.miss_latency_hist_seqr.forward_to_first_response::stdev          nan                      
system.noc_network.Directory.miss_latency_hist_seqr.forward_to_first_response |           1    100.00%    100.00% |           0      0.00%    100.00% |           0      0.00%    100.00% |           0      0.00%    100.00% |           0      0.00%    100.00% |           0      0.00%    100.00% |           0      0.00%    100.00% |           0      0.00%    100.00% |           0      0.00%    100.00% |           0      0.00%    100.00%
system.noc_network.Directory.miss_latency_hist_seqr.forward_to_first_response::total            1                      
system.noc_network.Directory.miss_latency_hist_seqr.initial_to_forward::bucket_size            1                      
system.noc_network.Directory.miss_latency_hist_seqr.initial_to_forward::max_bucket            9                      
system.noc_network.Directory.miss_latency_hist_seqr.initial_to_forward::samples            1                      
system.noc_network.Directory.miss_latency_hist_seqr.initial_to_forward::stdev          nan                      
system.noc_network.Directory.miss_latency_hist_seqr.initial_to_forward |           1    100.00%    100.00% |           0      0.00%    100.00% |           0      0.00%    100.00% |           0      0.00%    100.00% |           0      0.00%    100.00% |           0      0.00%    100.00% |           0      0.00%    100.00% |           0      0.00%    100.00% |           0      0.00%    100.00% |           0      0.00%    100.00%
system.noc_network.Directory.miss_latency_hist_seqr.initial_to_forward::total            1                      
system.noc_network.Directory.miss_latency_hist_seqr.issue_to_initial_request::bucket_size            1                      
system.noc_network.Directory.miss_latency_hist_seqr.issue_to_initial_request::max_bucket            9                      
system.noc_network.Directory.miss_latency_hist_seqr.issue_to_initial_request::samples            1                      
system.noc_network.Directory.miss_latency_hist_seqr.issue_to_initial_request::stdev          nan                      
system.noc_network.Directory.miss_latency_hist_seqr.issue_to_initial_request |           1    100.00%    100.00% |           0      0.00%    100.00% |           0      0.00%    100.00% |           0      0.00%    100.00% |           0      0.00%    100.00% |           0      0.00%    100.00% |           0      0.00%    100.00% |           0      0.00%    100.00% |           0      0.00%    100.00% |           0      0.00%    100.00%
system.noc_network.Directory.miss_latency_hist_seqr.issue_to_initial_request::total            1                      
system.noc_network.Directory.miss_mach_latency_hist_seqr::bucket_size            8                      
system.noc_network.Directory.miss_mach_latency_hist_seqr::max_bucket           79                      
system.noc_network.Directory.miss_mach_latency_hist_seqr::samples       453204                      
system.noc_network.Directory.miss_mach_latency_hist_seqr::mean     0.000141                      
system.noc_network.Directory.miss_mach_latency_hist_seqr::stdev     0.095068                      
system.noc_network.Directory.miss_mach_latency_hist_seqr |      453203    100.00%    100.00% |           0      0.00%    100.00% |           0      0.00%    100.00% |           0      0.00%    100.00% |           0      0.00%    100.00% |           0      0.00%    100.00% |           0      0.00%    100.00% |           0      0.00%    100.00% |           1      0.00%    100.00% |           0      0.00%    100.00%
system.noc_network.Directory.miss_mach_latency_hist_seqr::total       453204                      
system.noc_network.Directory_Controller.GETX |       63927     14.11%     14.11% |      389277     85.89%    100.00%
system.noc_network.Directory_Controller.GETX::total       453204                      
system.noc_network.Directory_Controller.I.GETX |       63927     14.11%     14.11% |      389277     85.89%    100.00%
system.noc_network.Directory_Controller.I.GETX::total       453204                      
system.noc_network.Directory_Controller.IM.Memory_Data |       63927     14.11%     14.11% |      389277     85.89%    100.00%
system.noc_network.Directory_Controller.IM.Memory_Data::total       453204                      
system.noc_network.Directory_Controller.M.PUTX |       63144     13.96%     13.96% |      389036     86.04%    100.00%
system.noc_network.Directory_Controller.M.PUTX::total       452180                      
system.noc_network.Directory_Controller.MI.Memory_Ack |       63144     13.96%     13.96% |      389036     86.04%    100.00%
system.noc_network.Directory_Controller.MI.Memory_Ack::total       452180                      
system.noc_network.Directory_Controller.Memory_Ack |       63144     13.96%     13.96% |      389036     86.04%    100.00%
system.noc_network.Directory_Controller.Memory_Ack::total       452180                      
system.noc_network.Directory_Controller.Memory_Data |       63927     14.11%     14.11% |      389277     85.89%    100.00%
system.noc_network.Directory_Controller.Memory_Data::total       453204                      
system.noc_network.Directory_Controller.PUTX |       63144     13.96%     13.96% |      389036     86.04%    100.00%
system.noc_network.Directory_Controller.PUTX::total       452180                      
system.noc_network.IFETCH.Directory.miss_type_mach_latency_hist_seqr::bucket_size            8                      
system.noc_network.IFETCH.Directory.miss_type_mach_latency_hist_seqr::max_bucket           79                      
system.noc_network.IFETCH.Directory.miss_type_mach_latency_hist_seqr::samples         9432                      
system.noc_network.IFETCH.Directory.miss_type_mach_latency_hist_seqr::mean     0.006785                      
system.noc_network.IFETCH.Directory.miss_type_mach_latency_hist_seqr::stdev     0.658989                      
system.noc_network.IFETCH.Directory.miss_type_mach_latency_hist_seqr |        9431     99.99%     99.99% |           0      0.00%     99.99% |           0      0.00%     99.99% |           0      0.00%     99.99% |           0      0.00%     99.99% |           0      0.00%     99.99% |           0      0.00%     99.99% |           0      0.00%     99.99% |           1      0.01%    100.00% |           0      0.00%    100.00%
system.noc_network.IFETCH.Directory.miss_type_mach_latency_hist_seqr::total         9432                      
system.noc_network.IFETCH.hit_latency_hist_seqr::bucket_size            1                      
system.noc_network.IFETCH.hit_latency_hist_seqr::max_bucket            9                      
system.noc_network.IFETCH.hit_latency_hist_seqr::samples    399275020                      
system.noc_network.IFETCH.hit_latency_hist_seqr |   399275020    100.00%    100.00% |           0      0.00%    100.00% |           0      0.00%    100.00% |           0      0.00%    100.00% |           0      0.00%    100.00% |           0      0.00%    100.00% |           0      0.00%    100.00% |           0      0.00%    100.00% |           0      0.00%    100.00% |           0      0.00%    100.00%
system.noc_network.IFETCH.hit_latency_hist_seqr::total    399275020                      
system.noc_network.IFETCH.latency_hist_seqr::bucket_size            8                      
system.noc_network.IFETCH.latency_hist_seqr::max_bucket           79                      
system.noc_network.IFETCH.latency_hist_seqr::samples    399284452                      
system.noc_network.IFETCH.latency_hist_seqr::mean     0.000000                      
system.noc_network.IFETCH.latency_hist_seqr::stdev     0.003203                      
system.noc_network.IFETCH.latency_hist_seqr |   399284451    100.00%    100.00% |           0      0.00%    100.00% |           0      0.00%    100.00% |           0      0.00%    100.00% |           0      0.00%    100.00% |           0      0.00%    100.00% |           0      0.00%    100.00% |           0      0.00%    100.00% |           1      0.00%    100.00% |           0      0.00%    100.00%
system.noc_network.IFETCH.latency_hist_seqr::total    399284452                      
system.noc_network.IFETCH.miss_latency_hist_seqr::bucket_size            8                      
system.noc_network.IFETCH.miss_latency_hist_seqr::max_bucket           79                      
system.noc_network.IFETCH.miss_latency_hist_seqr::samples         9432                      
system.noc_network.IFETCH.miss_latency_hist_seqr::mean     0.006785                      
system.noc_network.IFETCH.miss_latency_hist_seqr::stdev     0.658989                      
system.noc_network.IFETCH.miss_latency_hist_seqr |        9431     99.99%     99.99% |           0      0.00%     99.99% |           0      0.00%     99.99% |           0      0.00%     99.99% |           0      0.00%     99.99% |           0      0.00%     99.99% |           0      0.00%     99.99% |           0      0.00%     99.99% |           1      0.01%    100.00% |           0      0.00%    100.00%
system.noc_network.IFETCH.miss_latency_hist_seqr::total         9432                      
system.noc_network.L1Cache_Controller.Data |      112025     24.72%     24.72% |      117227     25.87%     50.58% |      112388     24.80%     75.38% |      111564     24.62%    100.00%
system.noc_network.L1Cache_Controller.Data::total       453204                      
system.noc_network.L1Cache_Controller.I.Ifetch |        2681     28.42%     28.42% |        2333     24.73%     53.16% |        2205     23.38%     76.54% |        2213     23.46%    100.00%
system.noc_network.L1Cache_Controller.I.Ifetch::total         9432                      
system.noc_network.L1Cache_Controller.I.Load |      101766     24.61%     24.61% |      107114     25.90%     50.52% |      102712     24.84%     75.36% |      101904     24.64%    100.00%
system.noc_network.L1Cache_Controller.I.Load::total       413496                      
system.noc_network.L1Cache_Controller.I.Store |        7578     25.03%     25.03% |        7780     25.70%     50.73% |        7471     24.68%     75.40% |        7447     24.60%    100.00%
system.noc_network.L1Cache_Controller.I.Store::total        30276                      
system.noc_network.L1Cache_Controller.IM.Data |        7578     25.03%     25.03% |        7780     25.70%     50.73% |        7471     24.68%     75.40% |        7447     24.60%    100.00%
system.noc_network.L1Cache_Controller.IM.Data::total        30276                      
system.noc_network.L1Cache_Controller.IS.Data |      104447     24.70%     24.70% |      109447     25.88%     50.57% |      104917     24.81%     75.38% |      104117     24.62%    100.00%
system.noc_network.L1Cache_Controller.IS.Data::total       422928                      
system.noc_network.L1Cache_Controller.Ifetch |    98285795     24.62%     24.62% |   103369976     25.89%     50.50% |    99104030     24.82%     75.32% |    98524651     24.68%    100.00%
system.noc_network.L1Cache_Controller.Ifetch::total    399284452                      
system.noc_network.L1Cache_Controller.Load |    23248183     24.60%     24.60% |    24465179     25.89%     50.50% |    23455205     24.82%     75.32% |    23318032     24.68%    100.00%
system.noc_network.L1Cache_Controller.Load::total     94486599                      
system.noc_network.L1Cache_Controller.M.Ifetch |    98283114     24.62%     24.62% |   103367643     25.89%     50.50% |    99101825     24.82%     75.32% |    98522438     24.68%    100.00%
system.noc_network.L1Cache_Controller.M.Ifetch::total    399275020                      
system.noc_network.L1Cache_Controller.M.Load |    23146417     24.60%     24.60% |    24358065     25.89%     50.50% |    23352493     24.82%     75.32% |    23216128     24.68%    100.00%
system.noc_network.L1Cache_Controller.M.Load::total     94073103                      
system.noc_network.L1Cache_Controller.M.Replacement |      111769     24.72%     24.72% |      116971     25.87%     50.59% |      112132     24.80%     75.38% |      111308     24.62%    100.00%
system.noc_network.L1Cache_Controller.M.Replacement::total       452180                      
system.noc_network.L1Cache_Controller.M.Store |     4325391     24.67%     24.67% |     4536415     25.87%     50.54% |     4349620     24.80%     75.34% |     4324234     24.66%    100.00%
system.noc_network.L1Cache_Controller.M.Store::total     17535660                      
system.noc_network.L1Cache_Controller.MI.Writeback_Ack |      111769     24.72%     24.72% |      116971     25.87%     50.59% |      112132     24.80%     75.38% |      111308     24.62%    100.00%
system.noc_network.L1Cache_Controller.MI.Writeback_Ack::total       452180                      
system.noc_network.L1Cache_Controller.Replacement |      111769     24.72%     24.72% |      116971     25.87%     50.59% |      112132     24.80%     75.38% |      111308     24.62%    100.00%
system.noc_network.L1Cache_Controller.Replacement::total       452180                      
system.noc_network.L1Cache_Controller.Store |     4332969     24.67%     24.67% |     4544195     25.87%     50.54% |     4357091     24.80%     75.34% |     4331681     24.66%    100.00%
system.noc_network.L1Cache_Controller.Store::total     17565936                      
system.noc_network.L1Cache_Controller.Writeback_Ack |      111769     24.72%     24.72% |      116971     25.87%     50.59% |      112132     24.80%     75.38% |      111308     24.62%    100.00%
system.noc_network.L1Cache_Controller.Writeback_Ack::total       452180                      
system.noc_network.LD.Directory.miss_type_mach_latency_hist_seqr::bucket_size            1                      
system.noc_network.LD.Directory.miss_type_mach_latency_hist_seqr::max_bucket            9                      
system.noc_network.LD.Directory.miss_type_mach_latency_hist_seqr::samples       413496                      
system.noc_network.LD.Directory.miss_type_mach_latency_hist_seqr |      413496    100.00%    100.00% |           0      0.00%    100.00% |           0      0.00%    100.00% |           0      0.00%    100.00% |           0      0.00%    100.00% |           0      0.00%    100.00% |           0      0.00%    100.00% |           0      0.00%    100.00% |           0      0.00%    100.00% |           0      0.00%    100.00%
system.noc_network.LD.Directory.miss_type_mach_latency_hist_seqr::total       413496                      
system.noc_network.LD.hit_latency_hist_seqr::bucket_size            1                      
system.noc_network.LD.hit_latency_hist_seqr::max_bucket            9                      
system.noc_network.LD.hit_latency_hist_seqr::samples     94073103                      
system.noc_network.LD.hit_latency_hist_seqr |    94073103    100.00%    100.00% |           0      0.00%    100.00% |           0      0.00%    100.00% |           0      0.00%    100.00% |           0      0.00%    100.00% |           0      0.00%    100.00% |           0      0.00%    100.00% |           0      0.00%    100.00% |           0      0.00%    100.00% |           0      0.00%    100.00%
system.noc_network.LD.hit_latency_hist_seqr::total     94073103                      
system.noc_network.LD.latency_hist_seqr::bucket_size            1                      
system.noc_network.LD.latency_hist_seqr::max_bucket            9                      
system.noc_network.LD.latency_hist_seqr::samples     94486599                      
system.noc_network.LD.latency_hist_seqr  |    94486599    100.00%    100.00% |           0      0.00%    100.00% |           0      0.00%    100.00% |           0      0.00%    100.00% |           0      0.00%    100.00% |           0      0.00%    100.00% |           0      0.00%    100.00% |           0      0.00%    100.00% |           0      0.00%    100.00% |           0      0.00%    100.00%
system.noc_network.LD.latency_hist_seqr::total     94486599                      
system.noc_network.LD.miss_latency_hist_seqr::bucket_size            1                      
system.noc_network.LD.miss_latency_hist_seqr::max_bucket            9                      
system.noc_network.LD.miss_latency_hist_seqr::samples       413496                      
system.noc_network.LD.miss_latency_hist_seqr |      413496    100.00%    100.00% |           0      0.00%    100.00% |           0      0.00%    100.00% |           0      0.00%    100.00% |           0      0.00%    100.00% |           0      0.00%    100.00% |           0      0.00%    100.00% |           0      0.00%    100.00% |           0      0.00%    100.00% |           0      0.00%    100.00%
system.noc_network.LD.miss_latency_hist_seqr::total       413496                      
system.noc_network.RMW_Read.Directory.miss_type_mach_latency_hist_seqr::bucket_size            1                      
system.noc_network.RMW_Read.Directory.miss_type_mach_latency_hist_seqr::max_bucket            9                      
system.noc_network.RMW_Read.Directory.miss_type_mach_latency_hist_seqr::samples            6                      
system.noc_network.RMW_Read.Directory.miss_type_mach_latency_hist_seqr |           6    100.00%    100.00% |           0      0.00%    100.00% |           0      0.00%    100.00% |           0      0.00%    100.00% |           0      0.00%    100.00% |           0      0.00%    100.00% |           0      0.00%    100.00% |           0      0.00%    100.00% |           0      0.00%    100.00% |           0      0.00%    100.00%
system.noc_network.RMW_Read.Directory.miss_type_mach_latency_hist_seqr::total            6                      
system.noc_network.RMW_Read.hit_latency_hist_seqr::bucket_size            1                      
system.noc_network.RMW_Read.hit_latency_hist_seqr::max_bucket            9                      
system.noc_network.RMW_Read.hit_latency_hist_seqr::samples         1631                      
system.noc_network.RMW_Read.hit_latency_hist_seqr |        1631    100.00%    100.00% |           0      0.00%    100.00% |           0      0.00%    100.00% |           0      0.00%    100.00% |           0      0.00%    100.00% |           0      0.00%    100.00% |           0      0.00%    100.00% |           0      0.00%    100.00% |           0      0.00%    100.00% |           0      0.00%    100.00%
system.noc_network.RMW_Read.hit_latency_hist_seqr::total         1631                      
system.noc_network.RMW_Read.latency_hist_seqr::bucket_size            1                      
system.noc_network.RMW_Read.latency_hist_seqr::max_bucket            9                      
system.noc_network.RMW_Read.latency_hist_seqr::samples         1637                      
system.noc_network.RMW_Read.latency_hist_seqr |        1637    100.00%    100.00% |           0      0.00%    100.00% |           0      0.00%    100.00% |           0      0.00%    100.00% |           0      0.00%    100.00% |           0      0.00%    100.00% |           0      0.00%    100.00% |           0      0.00%    100.00% |           0      0.00%    100.00% |           0      0.00%    100.00%
system.noc_network.RMW_Read.latency_hist_seqr::total         1637                      
system.noc_network.RMW_Read.miss_latency_hist_seqr::bucket_size            1                      
system.noc_network.RMW_Read.miss_latency_hist_seqr::max_bucket            9                      
system.noc_network.RMW_Read.miss_latency_hist_seqr::samples            6                      
system.noc_network.RMW_Read.miss_latency_hist_seqr |           6    100.00%    100.00% |           0      0.00%    100.00% |           0      0.00%    100.00% |           0      0.00%    100.00% |           0      0.00%    100.00% |           0      0.00%    100.00% |           0      0.00%    100.00% |           0      0.00%    100.00% |           0      0.00%    100.00% |           0      0.00%    100.00%
system.noc_network.RMW_Read.miss_latency_hist_seqr::total            6                      
system.noc_network.ST.Directory.miss_type_mach_latency_hist_seqr::bucket_size            1                      
system.noc_network.ST.Directory.miss_type_mach_latency_hist_seqr::max_bucket            9                      
system.noc_network.ST.Directory.miss_type_mach_latency_hist_seqr::samples        30270                      
system.noc_network.ST.Directory.miss_type_mach_latency_hist_seqr |       30270    100.00%    100.00% |           0      0.00%    100.00% |           0      0.00%    100.00% |           0      0.00%    100.00% |           0      0.00%    100.00% |           0      0.00%    100.00% |           0      0.00%    100.00% |           0      0.00%    100.00% |           0      0.00%    100.00% |           0      0.00%    100.00%
system.noc_network.ST.Directory.miss_type_mach_latency_hist_seqr::total        30270                      
system.noc_network.ST.hit_latency_hist_seqr::bucket_size            1                      
system.noc_network.ST.hit_latency_hist_seqr::max_bucket            9                      
system.noc_network.ST.hit_latency_hist_seqr::samples     17534029                      
system.noc_network.ST.hit_latency_hist_seqr |    17534029    100.00%    100.00% |           0      0.00%    100.00% |           0      0.00%    100.00% |           0      0.00%    100.00% |           0      0.00%    100.00% |           0      0.00%    100.00% |           0      0.00%    100.00% |           0      0.00%    100.00% |           0      0.00%    100.00% |           0      0.00%    100.00%
system.noc_network.ST.hit_latency_hist_seqr::total     17534029                      
system.noc_network.ST.latency_hist_seqr::bucket_size            1                      
system.noc_network.ST.latency_hist_seqr::max_bucket            9                      
system.noc_network.ST.latency_hist_seqr::samples     17564299                      
system.noc_network.ST.latency_hist_seqr  |    17564299    100.00%    100.00% |           0      0.00%    100.00% |           0      0.00%    100.00% |           0      0.00%    100.00% |           0      0.00%    100.00% |           0      0.00%    100.00% |           0      0.00%    100.00% |           0      0.00%    100.00% |           0      0.00%    100.00% |           0      0.00%    100.00%
system.noc_network.ST.latency_hist_seqr::total     17564299                      
system.noc_network.ST.miss_latency_hist_seqr::bucket_size            1                      
system.noc_network.ST.miss_latency_hist_seqr::max_bucket            9                      
system.noc_network.ST.miss_latency_hist_seqr::samples        30270                      
system.noc_network.ST.miss_latency_hist_seqr |       30270    100.00%    100.00% |           0      0.00%    100.00% |           0      0.00%    100.00% |           0      0.00%    100.00% |           0      0.00%    100.00% |           0      0.00%    100.00% |           0      0.00%    100.00% |           0      0.00%    100.00% |           0      0.00%    100.00% |           0      0.00%    100.00%
system.noc_network.ST.miss_latency_hist_seqr::total        30270                      
system.noc_network.delayHist::bucket_size            4                       # delay histogram for all message
system.noc_network.delayHist::max_bucket           39                       # delay histogram for all message
system.noc_network.delayHist::samples          905384                       # delay histogram for all message
system.noc_network.delayHist::mean           9.638939                       # delay histogram for all message
system.noc_network.delayHist::gmean          9.229764                       # delay histogram for all message
system.noc_network.delayHist::stdev          2.752088                       # delay histogram for all message
system.noc_network.delayHist             |           0      0.00%      0.00% |      212924     23.52%     23.52% |      450725     49.78%     73.30% |      240929     26.61%     99.91% |         802      0.09%    100.00% |           4      0.00%    100.00% |           0      0.00%    100.00% |           0      0.00%    100.00% |           0      0.00%    100.00% |           0      0.00%    100.00% # delay histogram for all message
system.noc_network.delayHist::total            905384                       # delay histogram for all message
system.noc_network.delayVCHist.vnet_1::bucket_size            4                       # delay histogram for vnet_1
system.noc_network.delayVCHist.vnet_1::max_bucket           39                       # delay histogram for vnet_1
system.noc_network.delayVCHist.vnet_1::samples       453204                       # delay histogram for vnet_1
system.noc_network.delayVCHist.vnet_1::mean    12.145076                       # delay histogram for vnet_1
system.noc_network.delayVCHist.vnet_1::gmean    12.092488                       # delay histogram for vnet_1
system.noc_network.delayVCHist.vnet_1::stdev     1.139967                       # delay histogram for vnet_1
system.noc_network.delayVCHist.vnet_1    |           0      0.00%      0.00% |           0      0.00%      0.00% |      211469     46.66%     46.66% |      240929     53.16%     99.82% |         802      0.18%    100.00% |           4      0.00%    100.00% |           0      0.00%    100.00% |           0      0.00%    100.00% |           0      0.00%    100.00% |           0      0.00%    100.00% # delay histogram for vnet_1
system.noc_network.delayVCHist.vnet_1::total       453204                       # delay histogram for vnet_1
system.noc_network.delayVCHist.vnet_2::bucket_size            2                       # delay histogram for vnet_2
system.noc_network.delayVCHist.vnet_2::max_bucket           19                       # delay histogram for vnet_2
system.noc_network.delayVCHist.vnet_2::samples       452180                       # delay histogram for vnet_2
system.noc_network.delayVCHist.vnet_2::mean     7.127126                       # delay histogram for vnet_2
system.noc_network.delayVCHist.vnet_2::gmean     7.040441                       # delay histogram for vnet_2
system.noc_network.delayVCHist.vnet_2::stdev     1.121832                       # delay histogram for vnet_2
system.noc_network.delayVCHist.vnet_2    |           0      0.00%      0.00% |           0      0.00%      0.00% |           0      0.00%      0.00% |      212924     47.09%     47.09% |      223751     49.48%     96.57% |       15505      3.43%    100.00% |           0      0.00%    100.00% |           0      0.00%    100.00% |           0      0.00%    100.00% |           0      0.00%    100.00% # delay histogram for vnet_2
system.noc_network.delayVCHist.vnet_2::total       452180                       # delay histogram for vnet_2
system.noc_network.hit_latency_hist_seqr::bucket_size            1                      
system.noc_network.hit_latency_hist_seqr::max_bucket            9                      
system.noc_network.hit_latency_hist_seqr::samples    510883783                      
system.noc_network.hit_latency_hist_seqr |   510883783    100.00%    100.00% |           0      0.00%    100.00% |           0      0.00%    100.00% |           0      0.00%    100.00% |           0      0.00%    100.00% |           0      0.00%    100.00% |           0      0.00%    100.00% |           0      0.00%    100.00% |           0      0.00%    100.00% |           0      0.00%    100.00%
system.noc_network.hit_latency_hist_seqr::total    510883783                      
system.noc_network.latency_hist_seqr::bucket_size            8                      
system.noc_network.latency_hist_seqr::max_bucket           79                      
system.noc_network.latency_hist_seqr::samples    511336987                      
system.noc_network.latency_hist_seqr::mean     0.000000                      
system.noc_network.latency_hist_seqr::stdev     0.002830                      
system.noc_network.latency_hist_seqr     |   511336986    100.00%    100.00% |           0      0.00%    100.00% |           0      0.00%    100.00% |           0      0.00%    100.00% |           0      0.00%    100.00% |           0      0.00%    100.00% |           0      0.00%    100.00% |           0      0.00%    100.00% |           1      0.00%    100.00% |           0      0.00%    100.00%
system.noc_network.latency_hist_seqr::total    511336987                      
system.noc_network.miss_latency_hist_seqr::bucket_size            8                      
system.noc_network.miss_latency_hist_seqr::max_bucket           79                      
system.noc_network.miss_latency_hist_seqr::samples       453204                      
system.noc_network.miss_latency_hist_seqr::mean     0.000141                      
system.noc_network.miss_latency_hist_seqr::stdev     0.095068                      
system.noc_network.miss_latency_hist_seqr |      453203    100.00%    100.00% |           0      0.00%    100.00% |           0      0.00%    100.00% |           0      0.00%    100.00% |           0      0.00%    100.00% |           0      0.00%    100.00% |           0      0.00%    100.00% |           0      0.00%    100.00% |           1      0.00%    100.00% |           0      0.00%    100.00%
system.noc_network.miss_latency_hist_seqr::total       453204                      
system.noc_network.network.average_flit_latency 133752711060.849823                      
system.noc_network.network.average_flit_network_latency 12881.472208                      
system.noc_network.network.average_flit_queueing_latency 133752698179.377609                      
system.noc_network.network.average_flit_vnet_latency |         nan                       |         nan                       |17793.187733                       | 6127.126366                       | 8346.328364                      
system.noc_network.network.average_flit_vqueue_latency |         nan                       |         nan                       |133853280737.644318                       |133903690062.767807                       |133602096228.135651                      
system.noc_network.network.average_hops      1.563760                      
system.noc_network.network.average_packet_latency 133752707772.319702                      
system.noc_network.network.average_packet_network_latency 17375.585939                      
system.noc_network.network.average_packet_queueing_latency 133752690396.733765                      
system.noc_network.network.average_packet_vnet_latency |         nan                       |         nan                       |26112.242982                       | 6127.126366                       |11145.056090                      
system.noc_network.network.average_packet_vqueue_latency |         nan                       |         nan                       |133752658201.112442                       |133903690062.767807                       |133602096228.132263                      
system.noc_network.network.avg_link_utilization     0.069834                      
system.noc_network.network.avg_vc_load   |           0      0.00%      0.00% |           0      0.00%      0.00% |           0      0.00%      0.00% |           0      0.00%      0.00% |           0      0.00%      0.00% |           0      0.00%      0.00% |           0      0.00%      0.00% |           0      0.00%      0.00% |    0.025368     36.33%     36.33% |    0.004566      6.54%     42.87% |    0.004132      5.92%     48.78% |    0.000822      1.18%     49.96% |    0.004586      6.57%     56.53% |    0.000410      0.59%     57.11% |    0.000408      0.58%     57.70% |    0.000408      0.58%     58.28% |    0.022969     32.89%     91.17% |    0.002077      2.97%     94.15% |    0.002044      2.93%     97.07% |    0.002043      2.93%    100.00%
system.noc_network.network.avg_vc_load::total     0.069834                      
system.noc_network.network.ext_in_link_utilization      5432304                      
system.noc_network.network.ext_out_link_utilization      5432304                      
system.noc_network.network.flit_network_latency |           0                       |           0                       | 48292562000                       |  2770564000                       | 18912947000                      
system.noc_network.network.flit_queueing_latency |           0                       |           0                       |363291724663163392                       |60548570572582344                       |302745022094879936                      
system.noc_network.network.flits_injected |           0      0.00%      0.00% |           0      0.00%      0.00% |     2714104     49.96%     49.96% |      452180      8.32%     58.29% |     2266020     41.71%    100.00%
system.noc_network.network.flits_injected::total      5432304                      
system.noc_network.network.flits_received |           0      0.00%      0.00% |           0      0.00%      0.00% |     2714104     49.96%     49.96% |      452180      8.32%     58.29% |     2266020     41.71%    100.00%
system.noc_network.network.flits_received::total      5432304                      
system.noc_network.network.int_link_utilization      8494818                      
system.noc_network.network.packet_network_latency |           0                       |           0                       | 23641607000                       |  2770564000                       |  5050984000                      
system.noc_network.network.packet_queueing_latency |           0                       |           0                       |121097516692755984                       |60548570572582344                       |60549004418974456                      
system.noc_network.network.packets_injected |           0      0.00%      0.00% |           0      0.00%      0.00% |      905384     50.00%     50.00% |      452180     24.97%     74.97% |      453204     25.03%    100.00%
system.noc_network.network.packets_injected::total      1810768                      
system.noc_network.network.packets_received |           0      0.00%      0.00% |           0      0.00%      0.00% |      905384     50.00%     50.00% |      452180     24.97%     74.97% |      453204     25.03%    100.00%
system.noc_network.network.packets_received::total      1810768                      
system.noc_network.network.routers0.buffer_reads      1534002                      
system.noc_network.network.routers0.buffer_writes      1534002                      
system.noc_network.network.routers0.crossbar_activity      1534002                      
system.noc_network.network.routers0.sw_input_arbiter_activity      1534742                      
system.noc_network.network.routers0.sw_output_arbiter_activity      1534002                      
system.noc_network.network.routers1.buffer_reads      1336245                      
system.noc_network.network.routers1.buffer_writes      1336245                      
system.noc_network.network.routers1.crossbar_activity      1336245                      
system.noc_network.network.routers1.sw_input_arbiter_activity      1336633                      
system.noc_network.network.routers1.sw_output_arbiter_activity      1336245                      
system.noc_network.network.routers2.buffer_reads      2653307                      
system.noc_network.network.routers2.buffer_writes      2653307                      
system.noc_network.network.routers2.crossbar_activity      2653307                      
system.noc_network.network.routers2.sw_input_arbiter_activity      2653810                      
system.noc_network.network.routers2.sw_output_arbiter_activity      2653307                      
system.noc_network.network.routers3.buffer_reads      5046168                      
system.noc_network.network.routers3.buffer_writes      5046168                      
system.noc_network.network.routers3.crossbar_activity      5046168                      
system.noc_network.network.routers3.sw_input_arbiter_activity      5052740                      
system.noc_network.network.routers3.sw_output_arbiter_activity      5046168                      
system.noc_network.network.routers4.buffer_reads      1347120                      
system.noc_network.network.routers4.buffer_writes      1347120                      
system.noc_network.network.routers4.crossbar_activity      1347120                      
system.noc_network.network.routers4.sw_input_arbiter_activity      1347120                      
system.noc_network.network.routers4.sw_output_arbiter_activity      1347120                      
system.noc_network.network.routers5.buffer_reads      2010280                      
system.noc_network.network.routers5.buffer_writes      2010280                      
system.noc_network.network.routers5.crossbar_activity      2010280                      
system.noc_network.network.routers5.sw_input_arbiter_activity      2011738                      
system.noc_network.network.routers5.sw_output_arbiter_activity      2010280                      
system.noc_network.outstanding_req_hist_seqr::bucket_size            1                      
system.noc_network.outstanding_req_hist_seqr::max_bucket            9                      
system.noc_network.outstanding_req_hist_seqr::samples    511336987                      
system.noc_network.outstanding_req_hist_seqr::mean     1.000000                      
system.noc_network.outstanding_req_hist_seqr::gmean     1.000000                      
system.noc_network.outstanding_req_hist_seqr::stdev     0.000159                      
system.noc_network.outstanding_req_hist_seqr |           0      0.00%      0.00% |   511336974    100.00%    100.00% |          13      0.00%    100.00% |           0      0.00%    100.00% |           0      0.00%    100.00% |           0      0.00%    100.00% |           0      0.00%    100.00% |           0      0.00%    100.00% |           0      0.00%    100.00% |           0      0.00%    100.00%
system.noc_network.outstanding_req_hist_seqr::total    511336987                      
system.noc_network.socket_controllers0.cacheMemory.demand_accesses    125866947                       # Number of cache demand accesses
system.noc_network.socket_controllers0.cacheMemory.demand_hits    125754922                       # Number of cache demand hits
system.noc_network.socket_controllers0.cacheMemory.demand_misses       112025                       # Number of cache demand misses
system.noc_network.socket_controllers0.forwardToCache.avg_buf_msgs     0.000403                       # Average number of messages in buffer
system.noc_network.socket_controllers0.forwardToCache.avg_stall_time  9749.507323                       # Average number of cycles messages are stalled in this MB
system.noc_network.socket_controllers0.mandatoryQueue.avg_buf_msgs     0.454030                       # Average number of messages in buffer
system.noc_network.socket_controllers0.mandatoryQueue.avg_stall_time   999.999996                       # Average number of cycles messages are stalled in this MB
system.noc_network.socket_controllers0.requestFromCache.avg_buf_msgs     0.002018                       # Average number of messages in buffer
system.noc_network.socket_controllers0.requestFromCache.avg_stall_time  2999.509519                       # Average number of cycles messages are stalled in this MB
system.noc_network.socket_controllers0.responseToCache.avg_buf_msgs     0.000404                       # Average number of messages in buffer
system.noc_network.socket_controllers0.responseToCache.avg_stall_time 14706.314976                       # Average number of cycles messages are stalled in this MB
system.noc_network.socket_controllers1.forwardFromDir.avg_buf_msgs     0.000228                       # Average number of messages in buffer
system.noc_network.socket_controllers1.forwardFromDir.avg_stall_time   999.942732                       # Average number of cycles messages are stalled in this MB
[...]
system.noc_network.socket_controllers3.mem_ctrl.bytesReadWrQ       572864                       # Total number of bytes read from write queue
system.noc_network.socket_controllers3.mem_ctrl.bytesReadSys     24913728                       # Total read bytes from the system interface side
system.noc_network.socket_controllers3.mem_ctrl.bytesWrittenSys     24898304                       # Total written bytes from the system interface side
system.noc_network.socket_controllers3.mem_ctrl.avgRdBWSys        89.87                       # Average system read bandwidth in MiByte/s
system.noc_network.socket_controllers3.mem_ctrl.avgWrBWSys        89.81                       # Average system write bandwidth in MiByte/s
system.noc_network.socket_controllers3.mem_ctrl.totGap 277207575000                       # Total gap between requests
system.noc_network.socket_controllers3.mem_ctrl.avgGap    356164.65                       # Average gap between requests
system.noc_network.socket_controllers3.mem_ctrl.requestorReadBytes::.noc_network.socket_controllers3     24340864                       # Per-requestor bytes read from memory
system.noc_network.socket_controllers3.mem_ctrl.requestorWriteBytes::.noc_network.socket_controllers3     24892352                       # Per-requestor bytes write to memory
system.noc_network.socket_controllers3.mem_ctrl.requestorReadRate::.noc_network.socket_controllers3 87802830.239279001951                       # Per-requestor bytes read from memory rate (Bytes/sec)
system.noc_network.socket_controllers3.mem_ctrl.requestorWriteRate::.noc_network.socket_controllers3 89792168.302340343595                       # Per-requestor bytes write to memory rate (Bytes/sec)
system.noc_network.socket_controllers3.mem_ctrl.requestorReadAccesses::.noc_network.socket_controllers3       389277                       # Per-requestor read serviced memory accesses
system.noc_network.socket_controllers3.mem_ctrl.requestorWriteAccesses::.noc_network.socket_controllers3       389036                       # Per-requestor write serviced memory accesses
system.noc_network.socket_controllers3.mem_ctrl.requestorReadTotalLat::.noc_network.socket_controllers3  15380893938                       # Per-requestor read total memory access latency
system.noc_network.socket_controllers3.mem_ctrl.requestorWriteTotalLat::.noc_network.socket_controllers3 15619477556424                       # Per-requestor write total memory access latency
system.noc_network.socket_controllers3.mem_ctrl.requestorReadAvgLat::.noc_network.socket_controllers3     39511.44                       # Per-requestor read average memory access latency
system.noc_network.socket_controllers3.mem_ctrl.requestorWriteAvgLat::.noc_network.socket_controllers3  40149183.00                       # Per-requestor write average memory access latency
system.noc_network.socket_controllers3.mem_ctrl.nvm.bytes_read::.noc_network.socket_controllers3     24913728                       # Number of bytes read from this memory
system.noc_network.socket_controllers3.mem_ctrl.nvm.bytes_read::total     24913728                       # Number of bytes read from this memory
system.noc_network.socket_controllers3.mem_ctrl.nvm.bytes_written::.noc_network.socket_controllers3     24898304                       # Number of bytes written to this memory
system.noc_network.socket_controllers3.mem_ctrl.nvm.bytes_written::total     24898304                       # Number of bytes written to this memory
system.noc_network.socket_controllers3.mem_ctrl.nvm.num_reads::.noc_network.socket_controllers3       389277                       # Number of read requests responded to by this memory
system.noc_network.socket_controllers3.mem_ctrl.nvm.num_reads::total       389277                       # Number of read requests responded to by this memory
system.noc_network.socket_controllers3.mem_ctrl.nvm.num_writes::.noc_network.socket_controllers3       389036                       # Number of write requests responded to by this memory
system.noc_network.socket_controllers3.mem_ctrl.nvm.num_writes::total       389036                       # Number of write requests responded to by this memory
system.noc_network.socket_controllers3.mem_ctrl.nvm.bw_read::.noc_network.socket_controllers3     89869276                       # Total read bandwidth from this memory (bytes/s)
system.noc_network.socket_controllers3.mem_ctrl.nvm.bw_read::total     89869276                       # Total read bandwidth from this memory (bytes/s)
system.noc_network.socket_controllers3.mem_ctrl.nvm.bw_write::.noc_network.socket_controllers3     89813638                       # Write bandwidth from this memory (bytes/s)
system.noc_network.socket_controllers3.mem_ctrl.nvm.bw_write::total     89813638                       # Write bandwidth from this memory (bytes/s)
system.noc_network.socket_controllers3.mem_ctrl.nvm.bw_total::.noc_network.socket_controllers3    179682915                       # Total bandwidth to/from this memory (bytes/s)
system.noc_network.socket_controllers3.mem_ctrl.nvm.bw_total::total    179682915                       # Total bandwidth to/from this memory (bytes/s)
system.noc_network.socket_controllers3.mem_ctrl.nvm.readBursts       380326                       # Number of NVM read bursts
system.noc_network.socket_controllers3.mem_ctrl.nvm.writeBursts       388943                       # Number of NVM write bursts
system.noc_network.socket_controllers3.mem_ctrl.nvm.perBankRdBursts::0        26582                       # Per bank write bursts
system.noc_network.socket_controllers3.mem_ctrl.nvm.perBankRdBursts::1        22380                       # Per bank write bursts
system.noc_network.socket_controllers3.mem_ctrl.nvm.perBankRdBursts::2        22403                       # Per bank write bursts
system.noc_network.socket_controllers3.mem_ctrl.nvm.perBankRdBursts::3        23271                       # Per bank write bursts
system.noc_network.socket_controllers3.mem_ctrl.nvm.perBankRdBursts::4        22257                       # Per bank write bursts
system.noc_network.socket_controllers3.mem_ctrl.nvm.perBankRdBursts::5        24870                       # Per bank write bursts
system.noc_network.socket_controllers3.mem_ctrl.nvm.perBankRdBursts::6        26173                       # Per bank write bursts
system.noc_network.socket_controllers3.mem_ctrl.nvm.perBankRdBursts::7        27937                       # Per bank write bursts
system.noc_network.socket_controllers3.mem_ctrl.nvm.perBankRdBursts::8        26587                       # Per bank write bursts
system.noc_network.socket_controllers3.mem_ctrl.nvm.perBankRdBursts::9        22290                       # Per bank write bursts
system.noc_network.socket_controllers3.mem_ctrl.nvm.perBankRdBursts::10        22256                       # Per bank write bursts
system.noc_network.socket_controllers3.mem_ctrl.nvm.perBankRdBursts::11        23055                       # Per bank write bursts
system.noc_network.socket_controllers3.mem_ctrl.nvm.perBankRdBursts::12        21310                       # Per bank write bursts
system.noc_network.socket_controllers3.mem_ctrl.nvm.perBankRdBursts::13        22277                       # Per bank write bursts
system.noc_network.socket_controllers3.mem_ctrl.nvm.perBankRdBursts::14        23872                       # Per bank write bursts
system.noc_network.socket_controllers3.mem_ctrl.nvm.perBankRdBursts::15        22806                       # Per bank write bursts
system.noc_network.socket_controllers3.mem_ctrl.nvm.perBankWrBursts::0        27123                       # Per bank write bursts
system.noc_network.socket_controllers3.mem_ctrl.nvm.perBankWrBursts::1        22878                       # Per bank write bursts
system.noc_network.socket_controllers3.mem_ctrl.nvm.perBankWrBursts::2        22942                       # Per bank write bursts
system.noc_network.socket_controllers3.mem_ctrl.nvm.perBankWrBursts::3        23875                       # Per bank write bursts
system.noc_network.socket_controllers3.mem_ctrl.nvm.perBankWrBursts::4        22789                       # Per bank write bursts
system.noc_network.socket_controllers3.mem_ctrl.nvm.perBankWrBursts::5        25396                       # Per bank write bursts
system.noc_network.socket_controllers3.mem_ctrl.nvm.perBankWrBursts::6        26744                       # Per bank write bursts
system.noc_network.socket_controllers3.mem_ctrl.nvm.perBankWrBursts::7        28605                       # Per bank write bursts
system.noc_network.socket_controllers3.mem_ctrl.nvm.perBankWrBursts::8        27156                       # Per bank write bursts
system.noc_network.socket_controllers3.mem_ctrl.nvm.perBankWrBursts::9        22845                       # Per bank write bursts
system.noc_network.socket_controllers3.mem_ctrl.nvm.perBankWrBursts::10        22766                       # Per bank write bursts
system.noc_network.socket_controllers3.mem_ctrl.nvm.perBankWrBursts::11        23574                       # Per bank write bursts
system.noc_network.socket_controllers3.mem_ctrl.nvm.perBankWrBursts::12        21772                       # Per bank write bursts
system.noc_network.socket_controllers3.mem_ctrl.nvm.perBankWrBursts::13        22756                       # Per bank write bursts
system.noc_network.socket_controllers3.mem_ctrl.nvm.perBankWrBursts::14        24451                       # Per bank write bursts
system.noc_network.socket_controllers3.mem_ctrl.nvm.perBankWrBursts::15        23271                       # Per bank write bursts
system.noc_network.socket_controllers3.mem_ctrl.nvm.totQLat   8728231546                       # Total ticks spent queuing
system.noc_network.socket_controllers3.mem_ctrl.nvm.totBusLat   1267246232                       # Total ticks spent in databus transfers
system.noc_network.socket_controllers3.mem_ctrl.nvm.totMemAccLat  15380893938                       # Total ticks spent from burst creation until serviced by the NVM
system.noc_network.socket_controllers3.mem_ctrl.nvm.avgQLat     22949.34                       # Average queueing delay per NVM burst
system.noc_network.socket_controllers3.mem_ctrl.nvm.avgBusLat      3332.00                       # Average bus latency per NVM burst
system.noc_network.socket_controllers3.mem_ctrl.nvm.avgMemAccLat     40441.34                       # Average memory access latency per NVM burst
system.noc_network.socket_controllers3.mem_ctrl.nvm.bytesRead     24340864                       # Total number of bytes read from DRAM
system.noc_network.socket_controllers3.mem_ctrl.nvm.bytesWritten     24892352                       # Total number of bytes written to DRAM
system.noc_network.socket_controllers3.mem_ctrl.nvm.avgRdBW        87.80                       # Average DRAM read bandwidth in MiBytes/s
system.noc_network.socket_controllers3.mem_ctrl.nvm.avgWrBW        89.79                       # Average DRAM write bandwidth in MiBytes/s
system.noc_network.socket_controllers3.mem_ctrl.nvm.peakBW     19207.00                       # Theoretical peak bandwidth in MiByte/s
system.noc_network.socket_controllers3.mem_ctrl.nvm.busUtil         0.92                       # NVM Data bus utilization in percentage
system.noc_network.socket_controllers3.mem_ctrl.nvm.busUtilRead         0.46                       # NVM Data bus read utilization in percentage
system.noc_network.socket_controllers3.mem_ctrl.nvm.busUtilWrite         0.47                       # NVM Data bus write utilization in percentage
system.noc_network.socket_controllers3.mem_ctrl.nvm.pendingReads::samples       380326                       # Reads issued to NVM for which data has not been transferred
system.noc_network.socket_controllers3.mem_ctrl.nvm.pendingReads::mean     0.023611                       # Reads issued to NVM for which data has not been transferred
system.noc_network.socket_controllers3.mem_ctrl.nvm.pendingReads::stdev     0.153574                       # Reads issued to NVM for which data has not been transferred
system.noc_network.socket_controllers3.mem_ctrl.nvm.pendingReads::0       371447     97.67%     97.67% # Reads issued to NVM for which data has not been transferred
system.noc_network.socket_controllers3.mem_ctrl.nvm.pendingReads::1         8778      2.31%     99.97% # Reads issued to NVM for which data has not been transferred
system.noc_network.socket_controllers3.mem_ctrl.nvm.pendingReads::2          101      0.03%    100.00% # Reads issued to NVM for which data has not been transferred
system.noc_network.socket_controllers3.mem_ctrl.nvm.pendingReads::total       380326                       # Reads issued to NVM for which data has not been transferred
system.noc_network.socket_controllers3.mem_ctrl.nvm.pendingWrites::samples       388943                       # Number of outstanding writes to NVM
system.noc_network.socket_controllers3.mem_ctrl.nvm.pendingWrites::mean     8.683018                       # Number of outstanding writes to NVM
system.noc_network.socket_controllers3.mem_ctrl.nvm.pendingWrites::gmean     6.932336                       # Number of outstanding writes to NVM
system.noc_network.socket_controllers3.mem_ctrl.nvm.pendingWrites::stdev     4.736936                       # Number of outstanding writes to NVM
system.noc_network.socket_controllers3.mem_ctrl.nvm.pendingWrites::1        23815      6.12%      6.12% # Number of outstanding writes to NVM
system.noc_network.socket_controllers3.mem_ctrl.nvm.pendingWrites::2        23815      6.12%     12.25% # Number of outstanding writes to NVM
system.noc_network.socket_controllers3.mem_ctrl.nvm.pendingWrites::3        23815      6.12%     18.37% # Number of outstanding writes to NVM
system.noc_network.socket_controllers3.mem_ctrl.nvm.pendingWrites::4        23815      6.12%     24.49% # Number of outstanding writes to NVM
system.noc_network.socket_controllers3.mem_ctrl.nvm.pendingWrites::5        23815      6.12%     30.62% # Number of outstanding writes to NVM
system.noc_network.socket_controllers3.mem_ctrl.nvm.pendingWrites::6        23815      6.12%     36.74% # Number of outstanding writes to NVM
system.noc_network.socket_controllers3.mem_ctrl.nvm.pendingWrites::7        23815      6.12%     42.86% # Number of outstanding writes to NVM
system.noc_network.socket_controllers3.mem_ctrl.nvm.pendingWrites::8        23815      6.12%     48.98% # Number of outstanding writes to NVM
system.noc_network.socket_controllers3.mem_ctrl.nvm.pendingWrites::9        23815      6.12%     55.11% # Number of outstanding writes to NVM
system.noc_network.socket_controllers3.mem_ctrl.nvm.pendingWrites::10        23815      6.12%     61.23% # Number of outstanding writes to NVM
system.noc_network.socket_controllers3.mem_ctrl.nvm.pendingWrites::11        23815      6.12%     67.35% # Number of outstanding writes to NVM
system.noc_network.socket_controllers3.mem_ctrl.nvm.pendingWrites::12        23815      6.12%     73.48% # Number of outstanding writes to NVM
system.noc_network.socket_controllers3.mem_ctrl.nvm.pendingWrites::13        23815      6.12%     79.60% # Number of outstanding writes to NVM
system.noc_network.socket_controllers3.mem_ctrl.nvm.pendingWrites::14        23815      6.12%     85.72% # Number of outstanding writes to NVM
system.noc_network.socket_controllers3.mem_ctrl.nvm.pendingWrites::15        23815      6.12%     91.85% # Number of outstanding writes to NVM
system.noc_network.socket_controllers3.mem_ctrl.nvm.pendingWrites::16        23815      6.12%     97.97% # Number of outstanding writes to NVM
system.noc_network.socket_controllers3.mem_ctrl.nvm.pendingWrites::17         3939      1.01%     98.98% # Number of outstanding writes to NVM
system.noc_network.socket_controllers3.mem_ctrl.nvm.pendingWrites::18         3921      1.01%     99.99% # Number of outstanding writes to NVM
system.noc_network.socket_controllers3.mem_ctrl.nvm.pendingWrites::19           42      0.01%    100.00% # Number of outstanding writes to NVM
system.noc_network.socket_controllers3.mem_ctrl.nvm.pendingWrites::20            1      0.00%    100.00% # Number of outstanding writes to NVM
system.noc_network.socket_controllers3.mem_ctrl.nvm.pendingWrites::total       388943                       # Number of outstanding writes to NVM
system.noc_network.socket_controllers3.mem_ctrl.nvm.bytesPerBank::samples       531112                       # Bytes read within a bank before loading new bank
system.noc_network.socket_controllers3.mem_ctrl.nvm.bytesPerBank::mean    92.697887                       # Bytes read within a bank before loading new bank
system.noc_network.socket_controllers3.mem_ctrl.nvm.bytesPerBank::gmean    82.431193                       # Bytes read within a bank before loading new bank
system.noc_network.socket_controllers3.mem_ctrl.nvm.bytesPerBank::stdev    54.189240                       # Bytes read within a bank before loading new bank
system.noc_network.socket_controllers3.mem_ctrl.nvm.bytesPerBank::64-67       387164     72.90%     72.90% # Bytes read within a bank before loading new bank
system.noc_network.socket_controllers3.mem_ctrl.nvm.bytesPerBank::128-131        79678     15.00%     87.90% # Bytes read within a bank before loading new bank
system.noc_network.socket_controllers3.mem_ctrl.nvm.bytesPerBank::192-195        34811      6.55%     94.45% # Bytes read within a bank before loading new bank
system.noc_network.socket_controllers3.mem_ctrl.nvm.bytesPerBank::256-259        29052      5.47%     99.92% # Bytes read within a bank before loading new bank
system.noc_network.socket_controllers3.mem_ctrl.nvm.bytesPerBank::320-323          349      0.07%     99.99% # Bytes read within a bank before loading new bank
system.noc_network.socket_controllers3.mem_ctrl.nvm.bytesPerBank::384-387           49      0.01%    100.00% # Bytes read within a bank before loading new bank
system.noc_network.socket_controllers3.mem_ctrl.nvm.bytesPerBank::448-451            7      0.00%    100.00% # Bytes read within a bank before loading new bank
system.noc_network.socket_controllers3.mem_ctrl.nvm.bytesPerBank::512-515            2      0.00%    100.00% # Bytes read within a bank before loading new bank
system.noc_network.socket_controllers3.mem_ctrl.nvm.bytesPerBank::total       531112                       # Bytes read within a bank before loading new bank
system.noc_network.socket_controllers3.mem_ctrl.nvm.power_state.pwrStateResidencyTicks::UNDEFINED 277221861000                       # Cumulative time (in ticks) in various power states
system.noc_network.socket_controllers3.mem_ctrl.power_state.pwrStateResidencyTicks::UNDEFINED 277221861000                       # Cumulative time (in ticks) in various power states
system.noc_network.socket_controllers3.power_state.pwrStateResidencyTicks::UNDEFINED 277221861000                       # Cumulative time (in ticks) in various power states
system.noc_network.socket_controllers4.power_state.pwrStateResidencyTicks::UNDEFINED 277221861000                       # Cumulative time (in ticks) in various power states
system.noc_network.socket_controllers4.sequencer.power_state.pwrStateResidencyTicks::UNDEFINED 277221861000                       # Cumulative time (in ticks) in various power states
system.noc_network.socket_controllers5.power_state.pwrStateResidencyTicks::UNDEFINED 277221861000                       # Cumulative time (in ticks) in various power states
system.noc_network.socket_controllers5.sequencer.power_state.pwrStateResidencyTicks::UNDEFINED 277221861000                       # Cumulative time (in ticks) in various power states
system.noc_network.sys_port_proxy.power_state.pwrStateResidencyTicks::UNDEFINED 277221861000                       # Cumulative time (in ticks) in various power states
system.voltage_domain.voltage                       1                       # Voltage in Volts

---------- End Simulation Statistics   ----------
