
---------- Begin Simulation Statistics ----------
final_tick                               659194430000                       # Number of ticks from beginning of simulation (restored from checkpoints and never reset)
host_inst_rate                                  25326                       # Simulator instruction rate (inst/s)
host_mem_usage                                1474932                       # Number of bytes of host memory used
host_op_rate                                    43538                       # Simulator op (including micro ops) rate (op/s)
host_seconds                                  2136.46                       # Real time elapsed on the host
host_tick_rate                              308544584                       # Simulator tick rate (ticks/s)
sim_freq                                 1000000000000                       # Frequency of simulated ticks
sim_insts                                    54109061                       # Number of instructions simulated
sim_ops                                      93017568                       # Number of ops (including micro ops) simulated
sim_seconds                                  0.659194                       # Number of seconds simulated
sim_ticks                                659194430000                       # Number of ticks simulated
system.cpu0.Branches                             5316                       # Number of branches fetched
system.cpu0.committedInsts                      25775                       # Number of instructions committed
system.cpu0.committedOps                        49656                       # Number of ops (including micro ops) committed
system.cpu0.idle_fraction                    0.999647                       # Percentage of idle cycles
system.cpu0.not_idle_fraction                0.000353                       # Percentage of non-idle cycles
system.cpu0.numCycles                       659194430                       # number of cpu cycles simulated
system.cpu0.numWorkItemsCompleted                   0                       # number of work items this cpu completed
system.cpu0.numWorkItemsStarted                     0                       # number of work items this cpu started
system.cpu0.num_busy_cycles              232368.000000                       # Number of busy cycles
system.cpu0.num_cc_register_reads               25618                       # number of times the CC registers were read
system.cpu0.num_cc_register_writes              14738                       # number of times the CC registers were written
system.cpu0.num_conditional_control_insts         3773                       # number of instructions that are conditional controls
system.cpu0.num_fp_alu_accesses                  2573                       # Number of float alu accesses
system.cpu0.num_fp_insts                         2573                       # number of float instructions
system.cpu0.num_fp_register_reads                2706                       # number of times the floating registers were read
system.cpu0.num_fp_register_writes               1201                       # number of times the floating registers were written
system.cpu0.num_func_calls                       1138                       # number of times a function call or return occured
system.cpu0.num_idle_cycles              658962062.000000                       # Number of idle cycles
system.cpu0.num_int_alu_accesses                47732                       # Number of integer alu accesses
system.cpu0.num_int_insts                       47732                       # number of integer instructions
system.cpu0.num_int_register_reads              94401                       # number of times the integer registers were read
system.cpu0.num_int_register_writes             36800                       # number of times the integer registers were written
system.cpu0.num_load_insts                       5800                       # Number of load instructions
system.cpu0.num_mem_refs                        11179                       # number of memory refs
system.cpu0.num_store_insts                      5379                       # Number of store instructions
system.cpu0.num_vec_alu_accesses                    0                       # Number of vector alu accesses
system.cpu0.num_vec_insts                           0                       # number of vector instructions
system.cpu0.num_vec_register_reads                  0                       # number of times the vector registers were read
system.cpu0.num_vec_register_writes                 0                       # number of times the vector registers were written
system.cpu0.op_class::No_OpClass                  784      1.58%      1.58% # Class of executed instruction
system.cpu0.op_class::IntAlu                    36900     74.23%     75.81% # Class of executed instruction
system.cpu0.op_class::IntMult                      15      0.03%     75.84% # Class of executed instruction
system.cpu0.op_class::IntDiv                       42      0.08%     75.92% # Class of executed instruction
system.cpu0.op_class::FloatAdd                    194      0.39%     76.31% # Class of executed instruction
system.cpu0.op_class::FloatCmp                      0      0.00%     76.31% # Class of executed instruction
system.cpu0.op_class::FloatCvt                      0      0.00%     76.31% # Class of executed instruction
system.cpu0.op_class::FloatMult                     0      0.00%     76.31% # Class of executed instruction
system.cpu0.op_class::FloatMultAcc                  0      0.00%     76.31% # Class of executed instruction
system.cpu0.op_class::FloatDiv                      0      0.00%     76.31% # Class of executed instruction
system.cpu0.op_class::FloatMisc                     0      0.00%     76.31% # Class of executed instruction
system.cpu0.op_class::FloatSqrt                     0      0.00%     76.31% # Class of executed instruction
system.cpu0.op_class::SimdAdd                       0      0.00%     76.31% # Class of executed instruction
system.cpu0.op_class::SimdAddAcc                    0      0.00%     76.31% # Class of executed instruction
system.cpu0.op_class::SimdAlu                     134      0.27%     76.58% # Class of executed instruction
system.cpu0.op_class::SimdCmp                       0      0.00%     76.58% # Class of executed instruction
system.cpu0.op_class::SimdCvt                      62      0.12%     76.71% # Class of executed instruction
system.cpu0.op_class::SimdMisc                    392      0.79%     77.50% # Class of executed instruction
system.cpu0.op_class::SimdMult                      0      0.00%     77.50% # Class of executed instruction
system.cpu0.op_class::SimdMultAcc                   0      0.00%     77.50% # Class of executed instruction
system.cpu0.op_class::SimdShift                     0      0.00%     77.50% # Class of executed instruction
system.cpu0.op_class::SimdShiftAcc                  0      0.00%     77.50% # Class of executed instruction
system.cpu0.op_class::SimdDiv                       0      0.00%     77.50% # Class of executed instruction
system.cpu0.op_class::SimdSqrt                      0      0.00%     77.50% # Class of executed instruction
system.cpu0.op_class::SimdFloatAdd                  0      0.00%     77.50% # Class of executed instruction
system.cpu0.op_class::SimdFloatAlu                  0      0.00%     77.50% # Class of executed instruction
system.cpu0.op_class::SimdFloatCmp                  0      0.00%     77.50% # Class of executed instruction
system.cpu0.op_class::SimdFloatCvt                  5      0.01%     77.51% # Class of executed instruction
system.cpu0.op_class::SimdFloatDiv                  0      0.00%     77.51% # Class of executed instruction
system.cpu0.op_class::SimdFloatMisc                 0      0.00%     77.51% # Class of executed instruction
system.cpu0.op_class::SimdFloatMult                 2      0.00%     77.51% # Class of executed instruction
system.cpu0.op_class::SimdFloatMultAcc              0      0.00%     77.51% # Class of executed instruction
system.cpu0.op_class::SimdFloatSqrt                 0      0.00%     77.51% # Class of executed instruction
system.cpu0.op_class::SimdReduceAdd                 0      0.00%     77.51% # Class of executed instruction
system.cpu0.op_class::SimdReduceAlu                 0      0.00%     77.51% # Class of executed instruction
system.cpu0.op_class::SimdReduceCmp                 0      0.00%     77.51% # Class of executed instruction
system.cpu0.op_class::SimdFloatReduceAdd            0      0.00%     77.51% # Class of executed instruction
system.cpu0.op_class::SimdFloatReduceCmp            0      0.00%     77.51% # Class of executed instruction
system.cpu0.op_class::SimdAes                       0      0.00%     77.51% # Class of executed instruction
system.cpu0.op_class::SimdAesMix                    0      0.00%     77.51% # Class of executed instruction
system.cpu0.op_class::SimdSha1Hash                  0      0.00%     77.51% # Class of executed instruction
system.cpu0.op_class::SimdSha1Hash2                 0      0.00%     77.51% # Class of executed instruction
system.cpu0.op_class::SimdSha256Hash                0      0.00%     77.51% # Class of executed instruction
system.cpu0.op_class::SimdSha256Hash2               0      0.00%     77.51% # Class of executed instruction
system.cpu0.op_class::SimdShaSigma2                 0      0.00%     77.51% # Class of executed instruction
system.cpu0.op_class::SimdShaSigma3                 0      0.00%     77.51% # Class of executed instruction
system.cpu0.op_class::SimdPredAlu                   0      0.00%     77.51% # Class of executed instruction
system.cpu0.op_class::MemRead                    5514     11.09%     88.60% # Class of executed instruction
system.cpu0.op_class::MemWrite                   4065      8.18%     96.78% # Class of executed instruction
system.cpu0.op_class::FloatMemRead                286      0.58%     97.36% # Class of executed instruction
system.cpu0.op_class::FloatMemWrite              1314      2.64%    100.00% # Class of executed instruction
system.cpu0.op_class::IprAccess                     0      0.00%    100.00% # Class of executed instruction
system.cpu0.op_class::InstPrefetch                  0      0.00%    100.00% # Class of executed instruction
system.cpu0.op_class::total                     49709                       # Class of executed instruction
system.cpu0.workload.numSyscalls                   41                       # Number of system calls
system.cpu1.Branches                           657093                       # Number of branches fetched
system.cpu1.committedInsts                   16609227                       # Number of instructions committed
system.cpu1.committedOps                     28394676                       # Number of ops (including micro ops) committed
system.cpu1.idle_fraction                    0.022721                       # Percentage of idle cycles
system.cpu1.not_idle_fraction                0.977279                       # Percentage of non-idle cycles
system.cpu1.numCycles                       654598085                       # number of cpu cycles simulated
system.cpu1.numWorkItemsCompleted                   0                       # number of work items this cpu completed
system.cpu1.numWorkItemsStarted                     0                       # number of work items this cpu started
system.cpu1.num_busy_cycles              639725131.363930                       # Number of busy cycles
system.cpu1.num_cc_register_reads             3195149                       # number of times the CC registers were read
system.cpu1.num_cc_register_writes            7906023                       # number of times the CC registers were written
system.cpu1.num_conditional_control_insts       616092                       # number of instructions that are conditional controls
system.cpu1.num_fp_alu_accesses                 20545                       # Number of float alu accesses
system.cpu1.num_fp_insts                        20545                       # number of float instructions
system.cpu1.num_fp_register_reads               25425                       # number of times the floating registers were read
system.cpu1.num_fp_register_writes              17508                       # number of times the floating registers were written
system.cpu1.num_func_calls                       1837                       # number of times a function call or return occured
system.cpu1.num_idle_cycles              14872953.636070                       # Number of idle cycles
system.cpu1.num_int_alu_accesses             28377997                       # Number of integer alu accesses
system.cpu1.num_int_insts                    28377997                       # number of integer instructions
system.cpu1.num_int_register_reads           71364540                       # number of times the integer registers were read
system.cpu1.num_int_register_writes          24971263                       # number of times the integer registers were written
system.cpu1.num_load_insts                    8320116                       # Number of load instructions
system.cpu1.num_mem_refs                     12168900                       # number of memory refs
system.cpu1.num_store_insts                   3848784                       # Number of store instructions
system.cpu1.num_vec_alu_accesses                    0                       # Number of vector alu accesses
system.cpu1.num_vec_insts                           0                       # number of vector instructions
system.cpu1.num_vec_register_reads                  0                       # number of times the vector registers were read
system.cpu1.num_vec_register_writes                 0                       # number of times the vector registers were written
system.cpu1.op_class::No_OpClass                 3971      0.01%      0.01% # Class of executed instruction
system.cpu1.op_class::IntAlu                 15123820     53.26%     53.28% # Class of executed instruction
system.cpu1.op_class::IntMult                 1068751      3.76%     57.04% # Class of executed instruction
system.cpu1.op_class::IntDiv                    16496      0.06%     57.10% # Class of executed instruction
system.cpu1.op_class::FloatAdd                   3824      0.01%     57.11% # Class of executed instruction
system.cpu1.op_class::FloatCmp                      0      0.00%     57.11% # Class of executed instruction
system.cpu1.op_class::FloatCvt                      0      0.00%     57.11% # Class of executed instruction
system.cpu1.op_class::FloatMult                     0      0.00%     57.11% # Class of executed instruction
system.cpu1.op_class::FloatMultAcc                  0      0.00%     57.11% # Class of executed instruction
system.cpu1.op_class::FloatDiv                      0      0.00%     57.11% # Class of executed instruction
system.cpu1.op_class::FloatMisc                     0      0.00%     57.11% # Class of executed instruction
system.cpu1.op_class::FloatSqrt                     0      0.00%     57.11% # Class of executed instruction
system.cpu1.op_class::SimdAdd                       0      0.00%     57.11% # Class of executed instruction
system.cpu1.op_class::SimdAddAcc                    0      0.00%     57.11% # Class of executed instruction
system.cpu1.op_class::SimdAlu                     898      0.00%     57.12% # Class of executed instruction
system.cpu1.op_class::SimdCmp                       0      0.00%     57.12% # Class of executed instruction
system.cpu1.op_class::SimdCvt                      20      0.00%     57.12% # Class of executed instruction
system.cpu1.op_class::SimdMisc                   1246      0.00%     57.12% # Class of executed instruction
system.cpu1.op_class::SimdMult                      0      0.00%     57.12% # Class of executed instruction
system.cpu1.op_class::SimdMultAcc                   0      0.00%     57.12% # Class of executed instruction
system.cpu1.op_class::SimdShift                     0      0.00%     57.12% # Class of executed instruction
system.cpu1.op_class::SimdShiftAcc                  0      0.00%     57.12% # Class of executed instruction
system.cpu1.op_class::SimdDiv                       0      0.00%     57.12% # Class of executed instruction
system.cpu1.op_class::SimdSqrt                      0      0.00%     57.12% # Class of executed instruction
system.cpu1.op_class::SimdFloatAdd               2320      0.01%     57.13% # Class of executed instruction
system.cpu1.op_class::SimdFloatAlu                  0      0.00%     57.13% # Class of executed instruction
system.cpu1.op_class::SimdFloatCmp                  0      0.00%     57.13% # Class of executed instruction
system.cpu1.op_class::SimdFloatCvt               1504      0.01%     57.13% # Class of executed instruction
system.cpu1.op_class::SimdFloatDiv                232      0.00%     57.13% # Class of executed instruction
system.cpu1.op_class::SimdFloatMisc                 0      0.00%     57.13% # Class of executed instruction
system.cpu1.op_class::SimdFloatMult              2724      0.01%     57.14% # Class of executed instruction
system.cpu1.op_class::SimdFloatMultAcc              0      0.00%     57.14% # Class of executed instruction
system.cpu1.op_class::SimdFloatSqrt                 0      0.00%     57.14% # Class of executed instruction
system.cpu1.op_class::SimdReduceAdd                 0      0.00%     57.14% # Class of executed instruction
system.cpu1.op_class::SimdReduceAlu                 0      0.00%     57.14% # Class of executed instruction
system.cpu1.op_class::SimdReduceCmp                 0      0.00%     57.14% # Class of executed instruction
system.cpu1.op_class::SimdFloatReduceAdd            0      0.00%     57.14% # Class of executed instruction
system.cpu1.op_class::SimdFloatReduceCmp            0      0.00%     57.14% # Class of executed instruction
system.cpu1.op_class::SimdAes                       0      0.00%     57.14% # Class of executed instruction
system.cpu1.op_class::SimdAesMix                    0      0.00%     57.14% # Class of executed instruction
system.cpu1.op_class::SimdSha1Hash                  0      0.00%     57.14% # Class of executed instruction
system.cpu1.op_class::SimdSha1Hash2                 0      0.00%     57.14% # Class of executed instruction
system.cpu1.op_class::SimdSha256Hash                0      0.00%     57.14% # Class of executed instruction
system.cpu1.op_class::SimdSha256Hash2               0      0.00%     57.14% # Class of executed instruction
system.cpu1.op_class::SimdShaSigma2                 0      0.00%     57.14% # Class of executed instruction
system.cpu1.op_class::SimdShaSigma3                 0      0.00%     57.14% # Class of executed instruction
system.cpu1.op_class::SimdPredAlu                   0      0.00%     57.14% # Class of executed instruction
system.cpu1.op_class::MemRead                 8314895     29.28%     86.43% # Class of executed instruction
system.cpu1.op_class::MemWrite                3847159     13.55%     99.98% # Class of executed instruction
system.cpu1.op_class::FloatMemRead               5221      0.02%     99.99% # Class of executed instruction
system.cpu1.op_class::FloatMemWrite              1625      0.01%    100.00% # Class of executed instruction
system.cpu1.op_class::IprAccess                     0      0.00%    100.00% # Class of executed instruction
system.cpu1.op_class::InstPrefetch                  0      0.00%    100.00% # Class of executed instruction
system.cpu1.op_class::total                  28394706                       # Class of executed instruction
system.cpu2.Branches                           657112                       # Number of branches fetched
system.cpu2.committedInsts                   16609173                       # Number of instructions committed
system.cpu2.committedOps                     28394653                       # Number of ops (including micro ops) committed
system.cpu2.idle_fraction                    0.020378                       # Percentage of idle cycles
system.cpu2.not_idle_fraction                0.979622                       # Percentage of non-idle cycles
system.cpu2.numCycles                       656109833                       # number of cpu cycles simulated
system.cpu2.numWorkItemsCompleted                   0                       # number of work items this cpu completed
system.cpu2.numWorkItemsStarted                     0                       # number of work items this cpu started
system.cpu2.num_busy_cycles              642739419.889552                       # Number of busy cycles
system.cpu2.num_cc_register_reads             3195199                       # number of times the CC registers were read
system.cpu2.num_cc_register_writes            7906011                       # number of times the CC registers were written
system.cpu2.num_conditional_control_insts       616106                       # number of instructions that are conditional controls
system.cpu2.num_fp_alu_accesses                 20475                       # Number of float alu accesses
system.cpu2.num_fp_insts                        20475                       # number of float instructions
system.cpu2.num_fp_register_reads               25306                       # number of times the floating registers were read
system.cpu2.num_fp_register_writes              17437                       # number of times the floating registers were written
system.cpu2.num_func_calls                       1845                       # number of times a function call or return occured
system.cpu2.num_idle_cycles              13370413.110448                       # Number of idle cycles
system.cpu2.num_int_alu_accesses             28378019                       # Number of integer alu accesses
system.cpu2.num_int_insts                    28378019                       # number of integer instructions
system.cpu2.num_int_register_reads           71364598                       # number of times the integer registers were read
system.cpu2.num_int_register_writes          24971289                       # number of times the integer registers were written
system.cpu2.num_load_insts                    8320093                       # Number of load instructions
system.cpu2.num_mem_refs                     12168888                       # number of memory refs
system.cpu2.num_store_insts                   3848795                       # Number of store instructions
system.cpu2.num_vec_alu_accesses                    0                       # Number of vector alu accesses
system.cpu2.num_vec_insts                           0                       # number of vector instructions
system.cpu2.num_vec_register_reads                  0                       # number of times the vector registers were read
system.cpu2.num_vec_register_writes                 0                       # number of times the vector registers were written
system.cpu2.op_class::No_OpClass                 3977      0.01%      0.01% # Class of executed instruction
system.cpu2.op_class::IntAlu                 15123848     53.26%     53.28% # Class of executed instruction
system.cpu2.op_class::IntMult                 1068751      3.76%     57.04% # Class of executed instruction
system.cpu2.op_class::IntDiv                    16504      0.06%     57.10% # Class of executed instruction
system.cpu2.op_class::FloatAdd                   3810      0.01%     57.11% # Class of executed instruction
system.cpu2.op_class::FloatCmp                      0      0.00%     57.11% # Class of executed instruction
system.cpu2.op_class::FloatCvt                      0      0.00%     57.11% # Class of executed instruction
system.cpu2.op_class::FloatMult                     0      0.00%     57.11% # Class of executed instruction
system.cpu2.op_class::FloatMultAcc                  0      0.00%     57.11% # Class of executed instruction
system.cpu2.op_class::FloatDiv                      0      0.00%     57.11% # Class of executed instruction
system.cpu2.op_class::FloatMisc                     0      0.00%     57.11% # Class of executed instruction
system.cpu2.op_class::FloatSqrt                     0      0.00%     57.11% # Class of executed instruction
system.cpu2.op_class::SimdAdd                       0      0.00%     57.11% # Class of executed instruction
system.cpu2.op_class::SimdAddAcc                    0      0.00%     57.11% # Class of executed instruction
system.cpu2.op_class::SimdAlu                     898      0.00%     57.12% # Class of executed instruction
system.cpu2.op_class::SimdCmp                       0      0.00%     57.12% # Class of executed instruction
system.cpu2.op_class::SimdCvt                      20      0.00%     57.12% # Class of executed instruction
system.cpu2.op_class::SimdMisc                   1244      0.00%     57.12% # Class of executed instruction
system.cpu2.op_class::SimdMult                      0      0.00%     57.12% # Class of executed instruction
system.cpu2.op_class::SimdMultAcc                   0      0.00%     57.12% # Class of executed instruction
system.cpu2.op_class::SimdShift                     0      0.00%     57.12% # Class of executed instruction
system.cpu2.op_class::SimdShiftAcc                  0      0.00%     57.12% # Class of executed instruction
system.cpu2.op_class::SimdDiv                       0      0.00%     57.12% # Class of executed instruction
system.cpu2.op_class::SimdSqrt                      0      0.00%     57.12% # Class of executed instruction
system.cpu2.op_class::SimdFloatAdd               2302      0.01%     57.13% # Class of executed instruction
system.cpu2.op_class::SimdFloatAlu                  0      0.00%     57.13% # Class of executed instruction
system.cpu2.op_class::SimdFloatCmp                  0      0.00%     57.13% # Class of executed instruction
system.cpu2.op_class::SimdFloatCvt               1504      0.01%     57.13% # Class of executed instruction
system.cpu2.op_class::SimdFloatDiv                232      0.00%     57.13% # Class of executed instruction
system.cpu2.op_class::SimdFloatMisc                 0      0.00%     57.13% # Class of executed instruction
system.cpu2.op_class::SimdFloatMult              2704      0.01%     57.14% # Class of executed instruction
system.cpu2.op_class::SimdFloatMultAcc              0      0.00%     57.14% # Class of executed instruction
system.cpu2.op_class::SimdFloatSqrt                 0      0.00%     57.14% # Class of executed instruction
system.cpu2.op_class::SimdReduceAdd                 0      0.00%     57.14% # Class of executed instruction
system.cpu2.op_class::SimdReduceAlu                 0      0.00%     57.14% # Class of executed instruction
system.cpu2.op_class::SimdReduceCmp                 0      0.00%     57.14% # Class of executed instruction
system.cpu2.op_class::SimdFloatReduceAdd            0      0.00%     57.14% # Class of executed instruction
system.cpu2.op_class::SimdFloatReduceCmp            0      0.00%     57.14% # Class of executed instruction
system.cpu2.op_class::SimdAes                       0      0.00%     57.14% # Class of executed instruction
system.cpu2.op_class::SimdAesMix                    0      0.00%     57.14% # Class of executed instruction
system.cpu2.op_class::SimdSha1Hash                  0      0.00%     57.14% # Class of executed instruction
system.cpu2.op_class::SimdSha1Hash2                 0      0.00%     57.14% # Class of executed instruction
system.cpu2.op_class::SimdSha256Hash                0      0.00%     57.14% # Class of executed instruction
system.cpu2.op_class::SimdSha256Hash2               0      0.00%     57.14% # Class of executed instruction
system.cpu2.op_class::SimdShaSigma2                 0      0.00%     57.14% # Class of executed instruction
system.cpu2.op_class::SimdShaSigma3                 0      0.00%     57.14% # Class of executed instruction
system.cpu2.op_class::SimdPredAlu                   0      0.00%     57.14% # Class of executed instruction
system.cpu2.op_class::MemRead                 8314888     29.28%     86.43% # Class of executed instruction
system.cpu2.op_class::MemWrite                3847167     13.55%     99.98% # Class of executed instruction
system.cpu2.op_class::FloatMemRead               5205      0.02%     99.99% # Class of executed instruction
system.cpu2.op_class::FloatMemWrite              1628      0.01%    100.00% # Class of executed instruction
system.cpu2.op_class::IprAccess                     0      0.00%    100.00% # Class of executed instruction
system.cpu2.op_class::InstPrefetch                  0      0.00%    100.00% # Class of executed instruction
system.cpu2.op_class::total                  28394682                       # Class of executed instruction
system.cpu3.Branches                          1401619                       # Number of branches fetched
system.cpu3.committedInsts                   20864886                       # Number of instructions committed
system.cpu3.committedOps                     36178583                       # Number of ops (including micro ops) committed
system.cpu3.idle_fraction                    0.000361                       # Percentage of idle cycles
system.cpu3.not_idle_fraction                0.999639                       # Percentage of non-idle cycles
system.cpu3.numCycles                       659153785                       # number of cpu cycles simulated
system.cpu3.numWorkItemsCompleted                   0                       # number of work items this cpu completed
system.cpu3.numWorkItemsStarted                     0                       # number of work items this cpu started
system.cpu3.num_busy_cycles              658915835.671525                       # Number of busy cycles
system.cpu3.num_cc_register_reads             6154851                       # number of times the CC registers were read
system.cpu3.num_cc_register_writes           10261964                       # number of times the CC registers were written
system.cpu3.num_conditional_control_insts      1036958                       # number of instructions that are conditional controls
system.cpu3.num_fp_alu_accesses                 22552                       # Number of float alu accesses
system.cpu3.num_fp_insts                        22552                       # number of float instructions
system.cpu3.num_fp_register_reads               28296                       # number of times the floating registers were read
system.cpu3.num_fp_register_writes              19016                       # number of times the floating registers were written
system.cpu3.num_func_calls                     194935                       # number of times a function call or return occured
system.cpu3.num_idle_cycles              237949.328475                       # Number of idle cycles
system.cpu3.num_int_alu_accesses             36137480                       # Number of integer alu accesses
system.cpu3.num_int_insts                    36137480                       # number of integer instructions
system.cpu3.num_int_register_reads           87527798                       # number of times the integer registers were read
system.cpu3.num_int_register_writes          31489156                       # number of times the integer registers were written
system.cpu3.num_load_insts                    9398442                       # Number of load instructions
system.cpu3.num_mem_refs                     13815859                       # number of memory refs
system.cpu3.num_store_insts                   4417417                       # Number of store instructions
system.cpu3.num_vec_alu_accesses                    0                       # Number of vector alu accesses
system.cpu3.num_vec_insts                           0                       # number of vector instructions
system.cpu3.num_vec_register_reads                  0                       # number of times the vector registers were read
system.cpu3.num_vec_register_writes                 0                       # number of times the vector registers were written
system.cpu3.op_class::No_OpClass                27151      0.08%      0.08% # Class of executed instruction
system.cpu3.op_class::IntAlu                 21165725     58.50%     58.58% # Class of executed instruction
system.cpu3.op_class::IntMult                 1138215      3.15%     61.72% # Class of executed instruction
system.cpu3.op_class::IntDiv                    17564      0.05%     61.77% # Class of executed instruction
system.cpu3.op_class::FloatAdd                   3932      0.01%     61.78% # Class of executed instruction
system.cpu3.op_class::FloatCmp                      0      0.00%     61.78% # Class of executed instruction
system.cpu3.op_class::FloatCvt                      0      0.00%     61.78% # Class of executed instruction
system.cpu3.op_class::FloatMult                     0      0.00%     61.78% # Class of executed instruction
system.cpu3.op_class::FloatMultAcc                  0      0.00%     61.78% # Class of executed instruction
system.cpu3.op_class::FloatDiv                      0      0.00%     61.78% # Class of executed instruction
system.cpu3.op_class::FloatMisc                     0      0.00%     61.78% # Class of executed instruction
system.cpu3.op_class::FloatSqrt                     0      0.00%     61.78% # Class of executed instruction
system.cpu3.op_class::SimdAdd                       0      0.00%     61.78% # Class of executed instruction
system.cpu3.op_class::SimdAddAcc                    0      0.00%     61.78% # Class of executed instruction
system.cpu3.op_class::SimdAlu                    1654      0.00%     61.79% # Class of executed instruction
system.cpu3.op_class::SimdCmp                       0      0.00%     61.79% # Class of executed instruction
system.cpu3.op_class::SimdCvt                     210      0.00%     61.79% # Class of executed instruction
system.cpu3.op_class::SimdMisc                   1557      0.00%     61.79% # Class of executed instruction
system.cpu3.op_class::SimdMult                      0      0.00%     61.79% # Class of executed instruction
system.cpu3.op_class::SimdMultAcc                   0      0.00%     61.79% # Class of executed instruction
system.cpu3.op_class::SimdShift                     0      0.00%     61.79% # Class of executed instruction
system.cpu3.op_class::SimdShiftAcc                  0      0.00%     61.79% # Class of executed instruction
system.cpu3.op_class::SimdDiv                       0      0.00%     61.79% # Class of executed instruction
system.cpu3.op_class::SimdSqrt                      0      0.00%     61.79% # Class of executed instruction
system.cpu3.op_class::SimdFloatAdd               2310      0.01%     61.80% # Class of executed instruction
system.cpu3.op_class::SimdFloatAlu                  0      0.00%     61.80% # Class of executed instruction
system.cpu3.op_class::SimdFloatCmp                  0      0.00%     61.80% # Class of executed instruction
system.cpu3.op_class::SimdFloatCvt               1497      0.00%     61.80% # Class of executed instruction
system.cpu3.op_class::SimdFloatDiv                231      0.00%     61.80% # Class of executed instruction
system.cpu3.op_class::SimdFloatMisc                 0      0.00%     61.80% # Class of executed instruction
system.cpu3.op_class::SimdFloatMult              2712      0.01%     61.81% # Class of executed instruction
system.cpu3.op_class::SimdFloatMultAcc              0      0.00%     61.81% # Class of executed instruction
system.cpu3.op_class::SimdFloatSqrt                 0      0.00%     61.81% # Class of executed instruction
system.cpu3.op_class::SimdReduceAdd                 0      0.00%     61.81% # Class of executed instruction
system.cpu3.op_class::SimdReduceAlu                 0      0.00%     61.81% # Class of executed instruction
system.cpu3.op_class::SimdReduceCmp                 0      0.00%     61.81% # Class of executed instruction
system.cpu3.op_class::SimdFloatReduceAdd            0      0.00%     61.81% # Class of executed instruction
system.cpu3.op_class::SimdFloatReduceCmp            0      0.00%     61.81% # Class of executed instruction
system.cpu3.op_class::SimdAes                       0      0.00%     61.81% # Class of executed instruction
system.cpu3.op_class::SimdAesMix                    0      0.00%     61.81% # Class of executed instruction
system.cpu3.op_class::SimdSha1Hash                  0      0.00%     61.81% # Class of executed instruction
system.cpu3.op_class::SimdSha1Hash2                 0      0.00%     61.81% # Class of executed instruction
system.cpu3.op_class::SimdSha256Hash                0      0.00%     61.81% # Class of executed instruction
system.cpu3.op_class::SimdSha256Hash2               0      0.00%     61.81% # Class of executed instruction
system.cpu3.op_class::SimdShaSigma2                 0      0.00%     61.81% # Class of executed instruction
system.cpu3.op_class::SimdShaSigma3                 0      0.00%     61.81% # Class of executed instruction
system.cpu3.op_class::SimdPredAlu                   0      0.00%     61.81% # Class of executed instruction
system.cpu3.op_class::MemRead                 9392987     25.96%     87.77% # Class of executed instruction
system.cpu3.op_class::MemWrite                4415477     12.20%     99.98% # Class of executed instruction
system.cpu3.op_class::FloatMemRead               5455      0.02%     99.99% # Class of executed instruction
system.cpu3.op_class::FloatMemWrite              1940      0.01%    100.00% # Class of executed instruction
system.cpu3.op_class::IprAccess                     0      0.00%    100.00% # Class of executed instruction
system.cpu3.op_class::InstPrefetch                  0      0.00%    100.00% # Class of executed instruction
system.cpu3.op_class::total                  36178617                       # Class of executed instruction
system.noc_network.Directory.incomplete_times_seqr        11313                      
system.noc_network.Directory.miss_latency_hist_seqr.first_response_to_completion::bucket_size            8                      
system.noc_network.Directory.miss_latency_hist_seqr.first_response_to_completion::max_bucket           79                      
system.noc_network.Directory.miss_latency_hist_seqr.first_response_to_completion::samples            1                      
system.noc_network.Directory.miss_latency_hist_seqr.first_response_to_completion::mean           72                      
system.noc_network.Directory.miss_latency_hist_seqr.first_response_to_completion::gmean           72                      
system.noc_network.Directory.miss_latency_hist_seqr.first_response_to_completion::stdev          nan                      
system.noc_network.Directory.miss_latency_hist_seqr.first_response_to_completion |           0      0.00%      0.00% |           0      0.00%      0.00% |           0      0.00%      0.00% |           0      0.00%      0.00% |           0      0.00%      0.00% |           0      0.00%      0.00% |           0      0.00%      0.00% |           0      0.00%      0.00% |           0      0.00%      0.00% |           1    100.00%    100.00%
system.noc_network.Directory.miss_latency_hist_seqr.first_response_to_completion::total            1                      
system.noc_network.Directory.miss_latency_hist_seqr.forward_to_first_response::bucket_size            1                      
system.noc_network.Directory.miss_latency_hist_seqr.forward_to_first_response::max_bucket            9                      
system.noc_network.Directory.miss_latency_hist_seqr.forward_to_first_response::samples            1                      
system.noc_network.Directory.miss_latency_hist_seqr.forward_to_first_response::stdev          nan                      
system.noc_network.Directory.miss_latency_hist_seqr.forward_to_first_response |           1    100.00%    100.00% |           0      0.00%    100.00% |           0      0.00%    100.00% |           0      0.00%    100.00% |           0      0.00%    100.00% |           0      0.00%    100.00% |           0      0.00%    100.00% |           0      0.00%    100.00% |           0      0.00%    100.00% |           0      0.00%    100.00%
system.noc_network.Directory.miss_latency_hist_seqr.forward_to_first_response::total            1                      
system.noc_network.Directory.miss_latency_hist_seqr.initial_to_forward::bucket_size            1                      
system.noc_network.Directory.miss_latency_hist_seqr.initial_to_forward::max_bucket            9                      
system.noc_network.Directory.miss_latency_hist_seqr.initial_to_forward::samples            1                      
system.noc_network.Directory.miss_latency_hist_seqr.initial_to_forward::stdev          nan                      
system.noc_network.Directory.miss_latency_hist_seqr.initial_to_forward |           1    100.00%    100.00% |           0      0.00%    100.00% |           0      0.00%    100.00% |           0      0.00%    100.00% |           0      0.00%    100.00% |           0      0.00%    100.00% |           0      0.00%    100.00% |           0      0.00%    100.00% |           0      0.00%    100.00% |           0      0.00%    100.00%
system.noc_network.Directory.miss_latency_hist_seqr.initial_to_forward::total            1                      
system.noc_network.Directory.miss_latency_hist_seqr.issue_to_initial_request::bucket_size            1                      
system.noc_network.Directory.miss_latency_hist_seqr.issue_to_initial_request::max_bucket            9                      
system.noc_network.Directory.miss_latency_hist_seqr.issue_to_initial_request::samples            1                      
system.noc_network.Directory.miss_latency_hist_seqr.issue_to_initial_request::stdev          nan                      
system.noc_network.Directory.miss_latency_hist_seqr.issue_to_initial_request |           1    100.00%    100.00% |           0      0.00%    100.00% |           0      0.00%    100.00% |           0      0.00%    100.00% |           0      0.00%    100.00% |           0      0.00%    100.00% |           0      0.00%    100.00% |           0      0.00%    100.00% |           0      0.00%    100.00% |           0      0.00%    100.00%
system.noc_network.Directory.miss_latency_hist_seqr.issue_to_initial_request::total            1                      
system.noc_network.Directory.miss_mach_latency_hist_seqr::bucket_size            8                      
system.noc_network.Directory.miss_mach_latency_hist_seqr::max_bucket           79                      
system.noc_network.Directory.miss_mach_latency_hist_seqr::samples        11314                      
system.noc_network.Directory.miss_mach_latency_hist_seqr::mean     0.006364                      
system.noc_network.Directory.miss_mach_latency_hist_seqr::stdev     0.676900                      
system.noc_network.Directory.miss_mach_latency_hist_seqr |       11313     99.99%     99.99% |           0      0.00%     99.99% |           0      0.00%     99.99% |           0      0.00%     99.99% |           0      0.00%     99.99% |           0      0.00%     99.99% |           0      0.00%     99.99% |           0      0.00%     99.99% |           0      0.00%     99.99% |           1      0.01%    100.00%
system.noc_network.Directory.miss_mach_latency_hist_seqr::total        11314                      
system.noc_network.Directory_Controller.GETX |     2092274      7.79%      7.79% |    24765152     92.21%    100.00%
system.noc_network.Directory_Controller.GETX::total     26857426                      
system.noc_network.Directory_Controller.I.GETX |         724      6.40%      6.40% |       10590     93.60%    100.00%
system.noc_network.Directory_Controller.I.GETX::total        11314                      
system.noc_network.Directory_Controller.IM.Memory_Data |         724      6.40%      6.40% |       10590     93.60%    100.00%
system.noc_network.Directory_Controller.IM.Memory_Data::total        11314                      
system.noc_network.Directory_Controller.M.GETX |     2091550      7.79%      7.79% |    24754562     92.21%    100.00%
system.noc_network.Directory_Controller.M.GETX::total     26846112                      
system.noc_network.Directory_Controller.M.PUTX |         594      5.56%      5.56% |       10089     94.44%    100.00%
system.noc_network.Directory_Controller.M.PUTX::total        10683                      
system.noc_network.Directory_Controller.MI.Memory_Ack |         594      5.56%      5.56% |       10089     94.44%    100.00%
system.noc_network.Directory_Controller.MI.Memory_Ack::total        10683                      
system.noc_network.Directory_Controller.Memory_Ack |         594      5.56%      5.56% |       10089     94.44%    100.00%
system.noc_network.Directory_Controller.Memory_Ack::total        10683                      
system.noc_network.Directory_Controller.Memory_Data |         724      6.40%      6.40% |       10590     93.60%    100.00%
system.noc_network.Directory_Controller.Memory_Data::total        11314                      
system.noc_network.Directory_Controller.PUTX |         594      5.56%      5.56% |       10089     94.44%    100.00%
system.noc_network.Directory_Controller.PUTX::total        10683                      
system.noc_network.IFETCH.Directory.miss_type_mach_latency_hist_seqr::bucket_size            8                      
system.noc_network.IFETCH.Directory.miss_type_mach_latency_hist_seqr::max_bucket           79                      
system.noc_network.IFETCH.Directory.miss_type_mach_latency_hist_seqr::samples         1612                      
system.noc_network.IFETCH.Directory.miss_type_mach_latency_hist_seqr::mean     0.044665                      
system.noc_network.IFETCH.Directory.miss_type_mach_latency_hist_seqr::stdev     1.793288                      
system.noc_network.IFETCH.Directory.miss_type_mach_latency_hist_seqr |        1611     99.94%     99.94% |           0      0.00%     99.94% |           0      0.00%     99.94% |           0      0.00%     99.94% |           0      0.00%     99.94% |           0      0.00%     99.94% |           0      0.00%     99.94% |           0      0.00%     99.94% |           0      0.00%     99.94% |           1      0.06%    100.00%
system.noc_network.IFETCH.Directory.miss_type_mach_latency_hist_seqr::total         1612                      
system.noc_network.IFETCH.L1Cache.miss_type_mach_latency_hist_seqr::bucket_size            1                      
system.noc_network.IFETCH.L1Cache.miss_type_mach_latency_hist_seqr::max_bucket            9                      
system.noc_network.IFETCH.L1Cache.miss_type_mach_latency_hist_seqr::samples     24743585                      
system.noc_network.IFETCH.L1Cache.miss_type_mach_latency_hist_seqr |    24743585    100.00%    100.00% |           0      0.00%    100.00% |           0      0.00%    100.00% |           0      0.00%    100.00% |           0      0.00%    100.00% |           0      0.00%    100.00% |           0      0.00%    100.00% |           0      0.00%    100.00% |           0      0.00%    100.00% |           0      0.00%    100.00%
system.noc_network.IFETCH.L1Cache.miss_type_mach_latency_hist_seqr::total     24743585                      
system.noc_network.IFETCH.hit_latency_hist_seqr::bucket_size            1                      
system.noc_network.IFETCH.hit_latency_hist_seqr::max_bucket            9                      
system.noc_network.IFETCH.hit_latency_hist_seqr::samples     45649489                      
system.noc_network.IFETCH.hit_latency_hist_seqr |    45649489    100.00%    100.00% |           0      0.00%    100.00% |           0      0.00%    100.00% |           0      0.00%    100.00% |           0      0.00%    100.00% |           0      0.00%    100.00% |           0      0.00%    100.00% |           0      0.00%    100.00% |           0      0.00%    100.00% |           0      0.00%    100.00%
system.noc_network.IFETCH.hit_latency_hist_seqr::total     45649489                      
system.noc_network.IFETCH.latency_hist_seqr::bucket_size            8                      
system.noc_network.IFETCH.latency_hist_seqr::max_bucket           79                      
system.noc_network.IFETCH.latency_hist_seqr::samples     70394686                      
system.noc_network.IFETCH.latency_hist_seqr::mean     0.000001                      
system.noc_network.IFETCH.latency_hist_seqr::stdev     0.008581                      
system.noc_network.IFETCH.latency_hist_seqr |    70394685    100.00%    100.00% |           0      0.00%    100.00% |           0      0.00%    100.00% |           0      0.00%    100.00% |           0      0.00%    100.00% |           0      0.00%    100.00% |           0      0.00%    100.00% |           0      0.00%    100.00% |           0      0.00%    100.00% |           1      0.00%    100.00%
system.noc_network.IFETCH.latency_hist_seqr::total     70394686                      
system.noc_network.IFETCH.miss_latency_hist_seqr::bucket_size            8                      
system.noc_network.IFETCH.miss_latency_hist_seqr::max_bucket           79                      
system.noc_network.IFETCH.miss_latency_hist_seqr::samples     24745197                      
system.noc_network.IFETCH.miss_latency_hist_seqr::mean     0.000003                      
system.noc_network.IFETCH.miss_latency_hist_seqr::stdev     0.014474                      
system.noc_network.IFETCH.miss_latency_hist_seqr |    24745196    100.00%    100.00% |           0      0.00%    100.00% |           0      0.00%    100.00% |           0      0.00%    100.00% |           0      0.00%    100.00% |           0      0.00%    100.00% |           0      0.00%    100.00% |           0      0.00%    100.00% |           0      0.00%    100.00% |           1      0.00%    100.00%
system.noc_network.IFETCH.miss_latency_hist_seqr::total     24745197                      
system.noc_network.L1Cache.incomplete_times_seqr     26846112                      
system.noc_network.L1Cache.miss_mach_latency_hist_seqr::bucket_size            1                      
system.noc_network.L1Cache.miss_mach_latency_hist_seqr::max_bucket            9                      
system.noc_network.L1Cache.miss_mach_latency_hist_seqr::samples     26846112                      
system.noc_network.L1Cache.miss_mach_latency_hist_seqr |    26846112    100.00%    100.00% |           0      0.00%    100.00% |           0      0.00%    100.00% |           0      0.00%    100.00% |           0      0.00%    100.00% |           0      0.00%    100.00% |           0      0.00%    100.00% |           0      0.00%    100.00% |           0      0.00%    100.00% |           0      0.00%    100.00%
system.noc_network.L1Cache.miss_mach_latency_hist_seqr::total     26846112                      
system.noc_network.L1Cache_Controller.Data |        1706      0.01%      0.01% |     8873188     33.04%     33.04% |     8936652     33.27%     66.32% |     9045880     33.68%    100.00%
system.noc_network.L1Cache_Controller.Data::total     26857426                      
system.noc_network.L1Cache_Controller.Fwd_GETX |         218      0.00%      0.00% |     8872684     33.05%     33.05% |     8936283     33.29%     66.34% |     9036927     33.66%    100.00%
system.noc_network.L1Cache_Controller.Fwd_GETX::total     26846112                      
system.noc_network.L1Cache_Controller.I.Ifetch |        1036      0.00%      0.00% |     8186290     33.08%     33.09% |     8223452     33.23%     66.32% |     8334419     33.68%    100.00%
system.noc_network.L1Cache_Controller.I.Ifetch::total     24745197                      
system.noc_network.L1Cache_Controller.I.Load |         355      0.02%      0.02% |      686682     32.53%     32.55% |      712980     33.78%     66.33% |      710699     33.67%    100.00%
system.noc_network.L1Cache_Controller.I.Load::total      2110716                      
system.noc_network.L1Cache_Controller.I.Replacement |          85      5.92%      5.92% |         420     29.25%     35.17% |         497     34.61%     69.78% |         434     30.22%    100.00%
system.noc_network.L1Cache_Controller.I.Replacement::total         1436                      
system.noc_network.L1Cache_Controller.I.Store |         315     20.82%     20.82% |         216     14.28%     35.10% |         220     14.54%     49.64% |         762     50.36%    100.00%
system.noc_network.L1Cache_Controller.I.Store::total         1513                      
system.noc_network.L1Cache_Controller.IM.Data |         315     20.82%     20.82% |         216     14.28%     35.10% |         220     14.54%     49.64% |         762     50.36%    100.00%
system.noc_network.L1Cache_Controller.IM.Data::total         1513                      
system.noc_network.L1Cache_Controller.IS.Data |        1391      0.01%      0.01% |     8872972     33.04%     33.04% |     8936432     33.28%     66.32% |     9045118     33.68%    100.00%
system.noc_network.L1Cache_Controller.IS.Data::total     26855913                      
system.noc_network.L1Cache_Controller.Ifetch |       34921      0.05%      0.05% |    21699356     30.83%     30.87% |    21699287     30.83%     61.70% |    26961122     38.30%    100.00%
system.noc_network.L1Cache_Controller.Ifetch::total     70394686                      
system.noc_network.L1Cache_Controller.Load |        5591      0.03%      0.03% |     6656182     31.78%     31.81% |     6656157     31.78%     63.59% |     7625907     36.41%    100.00%
system.noc_network.L1Cache_Controller.Load::total     20943837                      
system.noc_network.L1Cache_Controller.M.Fwd_GETX |         218      0.00%      0.00% |     8872684     33.05%     33.05% |     8936283     33.29%     66.34% |     9036927     33.66%    100.00%
system.noc_network.L1Cache_Controller.M.Fwd_GETX::total     26846112                      
system.noc_network.L1Cache_Controller.M.Ifetch |       33885      0.07%      0.07% |    13513066     29.60%     29.68% |    13475835     29.52%     59.20% |    18626703     40.80%    100.00%
system.noc_network.L1Cache_Controller.M.Ifetch::total     45649489                      
system.noc_network.L1Cache_Controller.M.Load |        5236      0.03%      0.03% |     5969500     31.70%     31.72% |     5943177     31.56%     63.28% |     6915208     36.72%    100.00%
system.noc_network.L1Cache_Controller.M.Load::total     18833121                      
system.noc_network.L1Cache_Controller.M.Replacement |        1233     11.54%     11.54% |         422      3.95%     15.49% |         297      2.78%     18.27% |        8731     81.73%    100.00%
system.noc_network.L1Cache_Controller.M.Replacement::total        10683                      
system.noc_network.L1Cache_Controller.M.Store |        5269      0.03%      0.03% |     5512667     32.01%     32.04% |     5512675     32.01%     64.06% |     6189365     35.94%    100.00%
system.noc_network.L1Cache_Controller.M.Store::total     17219976                      
system.noc_network.L1Cache_Controller.MI.Writeback_Ack |        1233     11.54%     11.54% |         422      3.95%     15.49% |         297      2.78%     18.27% |        8731     81.73%    100.00%
system.noc_network.L1Cache_Controller.MI.Writeback_Ack::total        10683                      
system.noc_network.L1Cache_Controller.Replacement |        1318     10.88%     10.88% |         842      6.95%     17.82% |         794      6.55%     24.37% |        9165     75.63%    100.00%
system.noc_network.L1Cache_Controller.Replacement::total        12119                      
system.noc_network.L1Cache_Controller.Store |        5584      0.03%      0.03% |     5512883     32.01%     32.04% |     5512895     32.01%     64.06% |     6190127     35.94%    100.00%
system.noc_network.L1Cache_Controller.Store::total     17221489                      
system.noc_network.L1Cache_Controller.Writeback_Ack |        1233     11.54%     11.54% |         422      3.95%     15.49% |         297      2.78%     18.27% |        8731     81.73%    100.00%
system.noc_network.L1Cache_Controller.Writeback_Ack::total        10683                      
system.noc_network.LD.Directory.miss_type_mach_latency_hist_seqr::bucket_size            1                      
system.noc_network.LD.Directory.miss_type_mach_latency_hist_seqr::max_bucket            9                      
system.noc_network.LD.Directory.miss_type_mach_latency_hist_seqr::samples         8496                      
system.noc_network.LD.Directory.miss_type_mach_latency_hist_seqr |        8496    100.00%    100.00% |           0      0.00%    100.00% |           0      0.00%    100.00% |           0      0.00%    100.00% |           0      0.00%    100.00% |           0      0.00%    100.00% |           0      0.00%    100.00% |           0      0.00%    100.00% |           0      0.00%    100.00% |           0      0.00%    100.00%
system.noc_network.LD.Directory.miss_type_mach_latency_hist_seqr::total         8496                      
system.noc_network.LD.L1Cache.miss_type_mach_latency_hist_seqr::bucket_size            1                      
system.noc_network.LD.L1Cache.miss_type_mach_latency_hist_seqr::max_bucket            9                      
system.noc_network.LD.L1Cache.miss_type_mach_latency_hist_seqr::samples      2102220                      
system.noc_network.LD.L1Cache.miss_type_mach_latency_hist_seqr |     2102220    100.00%    100.00% |           0      0.00%    100.00% |           0      0.00%    100.00% |           0      0.00%    100.00% |           0      0.00%    100.00% |           0      0.00%    100.00% |           0      0.00%    100.00% |           0      0.00%    100.00% |           0      0.00%    100.00% |           0      0.00%    100.00%
system.noc_network.LD.L1Cache.miss_type_mach_latency_hist_seqr::total      2102220                      
system.noc_network.LD.hit_latency_hist_seqr::bucket_size            1                      
system.noc_network.LD.hit_latency_hist_seqr::max_bucket            9                      
system.noc_network.LD.hit_latency_hist_seqr::samples     18833121                      
system.noc_network.LD.hit_latency_hist_seqr |    18833121    100.00%    100.00% |           0      0.00%    100.00% |           0      0.00%    100.00% |           0      0.00%    100.00% |           0      0.00%    100.00% |           0      0.00%    100.00% |           0      0.00%    100.00% |           0      0.00%    100.00% |           0      0.00%    100.00% |           0      0.00%    100.00%
system.noc_network.LD.hit_latency_hist_seqr::total     18833121                      
system.noc_network.LD.latency_hist_seqr::bucket_size            1                      
system.noc_network.LD.latency_hist_seqr::max_bucket            9                      
system.noc_network.LD.latency_hist_seqr::samples     20943837                      
system.noc_network.LD.latency_hist_seqr  |    20943837    100.00%    100.00% |           0      0.00%    100.00% |           0      0.00%    100.00% |           0      0.00%    100.00% |           0      0.00%    100.00% |           0      0.00%    100.00% |           0      0.00%    100.00% |           0      0.00%    100.00% |           0      0.00%    100.00% |           0      0.00%    100.00%
system.noc_network.LD.latency_hist_seqr::total     20943837                      
system.noc_network.LD.miss_latency_hist_seqr::bucket_size            1                      
system.noc_network.LD.miss_latency_hist_seqr::max_bucket            9                      
system.noc_network.LD.miss_latency_hist_seqr::samples      2110716                      
system.noc_network.LD.miss_latency_hist_seqr |     2110716    100.00%    100.00% |           0      0.00%    100.00% |           0      0.00%    100.00% |           0      0.00%    100.00% |           0      0.00%    100.00% |           0      0.00%    100.00% |           0      0.00%    100.00% |           0      0.00%    100.00% |           0      0.00%    100.00% |           0      0.00%    100.00%
system.noc_network.LD.miss_latency_hist_seqr::total      2110716                      
system.noc_network.Locked_RMW_Read.Directory.miss_type_mach_latency_hist_seqr::bucket_size            1                      
system.noc_network.Locked_RMW_Read.Directory.miss_type_mach_latency_hist_seqr::max_bucket            9                      
system.noc_network.Locked_RMW_Read.Directory.miss_type_mach_latency_hist_seqr::samples            6                      
system.noc_network.Locked_RMW_Read.Directory.miss_type_mach_latency_hist_seqr |           6    100.00%    100.00% |           0      0.00%    100.00% |           0      0.00%    100.00% |           0      0.00%    100.00% |           0      0.00%    100.00% |           0      0.00%    100.00% |           0      0.00%    100.00% |           0      0.00%    100.00% |           0      0.00%    100.00% |           0      0.00%    100.00%
system.noc_network.Locked_RMW_Read.Directory.miss_type_mach_latency_hist_seqr::total            6                      
system.noc_network.Locked_RMW_Read.L1Cache.miss_type_mach_latency_hist_seqr::bucket_size            1                      
system.noc_network.Locked_RMW_Read.L1Cache.miss_type_mach_latency_hist_seqr::max_bucket            9                      
system.noc_network.Locked_RMW_Read.L1Cache.miss_type_mach_latency_hist_seqr::samples           68                      
system.noc_network.Locked_RMW_Read.L1Cache.miss_type_mach_latency_hist_seqr |          68    100.00%    100.00% |           0      0.00%    100.00% |           0      0.00%    100.00% |           0      0.00%    100.00% |           0      0.00%    100.00% |           0      0.00%    100.00% |           0      0.00%    100.00% |           0      0.00%    100.00% |           0      0.00%    100.00% |           0      0.00%    100.00%
system.noc_network.Locked_RMW_Read.L1Cache.miss_type_mach_latency_hist_seqr::total           68                      
system.noc_network.Locked_RMW_Read.hit_latency_hist_seqr::bucket_size            1                      
system.noc_network.Locked_RMW_Read.hit_latency_hist_seqr::max_bucket            9                      
system.noc_network.Locked_RMW_Read.hit_latency_hist_seqr::samples          348                      
system.noc_network.Locked_RMW_Read.hit_latency_hist_seqr |         348    100.00%    100.00% |           0      0.00%    100.00% |           0      0.00%    100.00% |           0      0.00%    100.00% |           0      0.00%    100.00% |           0      0.00%    100.00% |           0      0.00%    100.00% |           0      0.00%    100.00% |           0      0.00%    100.00% |           0      0.00%    100.00%
system.noc_network.Locked_RMW_Read.hit_latency_hist_seqr::total          348                      
system.noc_network.Locked_RMW_Read.latency_hist_seqr::bucket_size            1                      
system.noc_network.Locked_RMW_Read.latency_hist_seqr::max_bucket            9                      
system.noc_network.Locked_RMW_Read.latency_hist_seqr::samples          422                      
system.noc_network.Locked_RMW_Read.latency_hist_seqr |         422    100.00%    100.00% |           0      0.00%    100.00% |           0      0.00%    100.00% |           0      0.00%    100.00% |           0      0.00%    100.00% |           0      0.00%    100.00% |           0      0.00%    100.00% |           0      0.00%    100.00% |           0      0.00%    100.00% |           0      0.00%    100.00%
system.noc_network.Locked_RMW_Read.latency_hist_seqr::total          422                      
system.noc_network.Locked_RMW_Read.miss_latency_hist_seqr::bucket_size            1                      
system.noc_network.Locked_RMW_Read.miss_latency_hist_seqr::max_bucket            9                      
system.noc_network.Locked_RMW_Read.miss_latency_hist_seqr::samples           74                      
system.noc_network.Locked_RMW_Read.miss_latency_hist_seqr |          74    100.00%    100.00% |           0      0.00%    100.00% |           0      0.00%    100.00% |           0      0.00%    100.00% |           0      0.00%    100.00% |           0      0.00%    100.00% |           0      0.00%    100.00% |           0      0.00%    100.00% |           0      0.00%    100.00% |           0      0.00%    100.00%
system.noc_network.Locked_RMW_Read.miss_latency_hist_seqr::total           74                      
system.noc_network.Locked_RMW_Write.hit_latency_hist_seqr::bucket_size            1                      
system.noc_network.Locked_RMW_Write.hit_latency_hist_seqr::max_bucket            9                      
system.noc_network.Locked_RMW_Write.hit_latency_hist_seqr::samples          422                      
system.noc_network.Locked_RMW_Write.hit_latency_hist_seqr |         422    100.00%    100.00% |           0      0.00%    100.00% |           0      0.00%    100.00% |           0      0.00%    100.00% |           0      0.00%    100.00% |           0      0.00%    100.00% |           0      0.00%    100.00% |           0      0.00%    100.00% |           0      0.00%    100.00% |           0      0.00%    100.00%
system.noc_network.Locked_RMW_Write.hit_latency_hist_seqr::total          422                      
system.noc_network.Locked_RMW_Write.latency_hist_seqr::bucket_size            1                      
system.noc_network.Locked_RMW_Write.latency_hist_seqr::max_bucket            9                      
system.noc_network.Locked_RMW_Write.latency_hist_seqr::samples          422                      
system.noc_network.Locked_RMW_Write.latency_hist_seqr |         422    100.00%    100.00% |           0      0.00%    100.00% |           0      0.00%    100.00% |           0      0.00%    100.00% |           0      0.00%    100.00% |           0      0.00%    100.00% |           0      0.00%    100.00% |           0      0.00%    100.00% |           0      0.00%    100.00% |           0      0.00%    100.00%
system.noc_network.Locked_RMW_Write.latency_hist_seqr::total          422                      
system.noc_network.RMW_Read.Directory.miss_type_mach_latency_hist_seqr::bucket_size            1                      
system.noc_network.RMW_Read.Directory.miss_type_mach_latency_hist_seqr::max_bucket            9                      
system.noc_network.RMW_Read.Directory.miss_type_mach_latency_hist_seqr::samples            7                      
system.noc_network.RMW_Read.Directory.miss_type_mach_latency_hist_seqr |           7    100.00%    100.00% |           0      0.00%    100.00% |           0      0.00%    100.00% |           0      0.00%    100.00% |           0      0.00%    100.00% |           0      0.00%    100.00% |           0      0.00%    100.00% |           0      0.00%    100.00% |           0      0.00%    100.00% |           0      0.00%    100.00%
system.noc_network.RMW_Read.Directory.miss_type_mach_latency_hist_seqr::total            7                      
system.noc_network.RMW_Read.L1Cache.miss_type_mach_latency_hist_seqr::bucket_size            1                      
system.noc_network.RMW_Read.L1Cache.miss_type_mach_latency_hist_seqr::max_bucket            9                      
system.noc_network.RMW_Read.L1Cache.miss_type_mach_latency_hist_seqr::samples            1                      
system.noc_network.RMW_Read.L1Cache.miss_type_mach_latency_hist_seqr::stdev          nan                      
system.noc_network.RMW_Read.L1Cache.miss_type_mach_latency_hist_seqr |           1    100.00%    100.00% |           0      0.00%    100.00% |           0      0.00%    100.00% |           0      0.00%    100.00% |           0      0.00%    100.00% |           0      0.00%    100.00% |           0      0.00%    100.00% |           0      0.00%    100.00% |           0      0.00%    100.00% |           0      0.00%    100.00%
system.noc_network.RMW_Read.L1Cache.miss_type_mach_latency_hist_seqr::total            1                      
system.noc_network.RMW_Read.hit_latency_hist_seqr::bucket_size            1                      
system.noc_network.RMW_Read.hit_latency_hist_seqr::max_bucket            9                      
system.noc_network.RMW_Read.hit_latency_hist_seqr::samples      5100483                      
system.noc_network.RMW_Read.hit_latency_hist_seqr |     5100483    100.00%    100.00% |           0      0.00%    100.00% |           0      0.00%    100.00% |           0      0.00%    100.00% |           0      0.00%    100.00% |           0      0.00%    100.00% |           0      0.00%    100.00% |           0      0.00%    100.00% |           0      0.00%    100.00% |           0      0.00%    100.00%
system.noc_network.RMW_Read.hit_latency_hist_seqr::total      5100483                      
system.noc_network.RMW_Read.latency_hist_seqr::bucket_size            1                      
system.noc_network.RMW_Read.latency_hist_seqr::max_bucket            9                      
system.noc_network.RMW_Read.latency_hist_seqr::samples      5100491                      
system.noc_network.RMW_Read.latency_hist_seqr |     5100491    100.00%    100.00% |           0      0.00%    100.00% |           0      0.00%    100.00% |           0      0.00%    100.00% |           0      0.00%    100.00% |           0      0.00%    100.00% |           0      0.00%    100.00% |           0      0.00%    100.00% |           0      0.00%    100.00% |           0      0.00%    100.00%
system.noc_network.RMW_Read.latency_hist_seqr::total      5100491                      
system.noc_network.RMW_Read.miss_latency_hist_seqr::bucket_size            1                      
system.noc_network.RMW_Read.miss_latency_hist_seqr::max_bucket            9                      
system.noc_network.RMW_Read.miss_latency_hist_seqr::samples            8                      
system.noc_network.RMW_Read.miss_latency_hist_seqr |           8    100.00%    100.00% |           0      0.00%    100.00% |           0      0.00%    100.00% |           0      0.00%    100.00% |           0      0.00%    100.00% |           0      0.00%    100.00% |           0      0.00%    100.00% |           0      0.00%    100.00% |           0      0.00%    100.00% |           0      0.00%    100.00%
system.noc_network.RMW_Read.miss_latency_hist_seqr::total            8                      
system.noc_network.ST.Directory.miss_type_mach_latency_hist_seqr::bucket_size            1                      
system.noc_network.ST.Directory.miss_type_mach_latency_hist_seqr::max_bucket            9                      
system.noc_network.ST.Directory.miss_type_mach_latency_hist_seqr::samples         1193                      
system.noc_network.ST.Directory.miss_type_mach_latency_hist_seqr |        1193    100.00%    100.00% |           0      0.00%    100.00% |           0      0.00%    100.00% |           0      0.00%    100.00% |           0      0.00%    100.00% |           0      0.00%    100.00% |           0      0.00%    100.00% |           0      0.00%    100.00% |           0      0.00%    100.00% |           0      0.00%    100.00%
system.noc_network.ST.Directory.miss_type_mach_latency_hist_seqr::total         1193                      
system.noc_network.ST.L1Cache.miss_type_mach_latency_hist_seqr::bucket_size            1                      
system.noc_network.ST.L1Cache.miss_type_mach_latency_hist_seqr::max_bucket            9                      
system.noc_network.ST.L1Cache.miss_type_mach_latency_hist_seqr::samples          238                      
system.noc_network.ST.L1Cache.miss_type_mach_latency_hist_seqr |         238    100.00%    100.00% |           0      0.00%    100.00% |           0      0.00%    100.00% |           0      0.00%    100.00% |           0      0.00%    100.00% |           0      0.00%    100.00% |           0      0.00%    100.00% |           0      0.00%    100.00% |           0      0.00%    100.00% |           0      0.00%    100.00%
system.noc_network.ST.L1Cache.miss_type_mach_latency_hist_seqr::total          238                      
system.noc_network.ST.hit_latency_hist_seqr::bucket_size            1                      
system.noc_network.ST.hit_latency_hist_seqr::max_bucket            9                      
system.noc_network.ST.hit_latency_hist_seqr::samples     12118723                      
system.noc_network.ST.hit_latency_hist_seqr |    12118723    100.00%    100.00% |           0      0.00%    100.00% |           0      0.00%    100.00% |           0      0.00%    100.00% |           0      0.00%    100.00% |           0      0.00%    100.00% |           0      0.00%    100.00% |           0      0.00%    100.00% |           0      0.00%    100.00% |           0      0.00%    100.00%
system.noc_network.ST.hit_latency_hist_seqr::total     12118723                      
system.noc_network.ST.latency_hist_seqr::bucket_size            1                      
system.noc_network.ST.latency_hist_seqr::max_bucket            9                      
system.noc_network.ST.latency_hist_seqr::samples     12120154                      
system.noc_network.ST.latency_hist_seqr  |    12120154    100.00%    100.00% |           0      0.00%    100.00% |           0      0.00%    100.00% |           0      0.00%    100.00% |           0      0.00%    100.00% |           0      0.00%    100.00% |           0      0.00%    100.00% |           0      0.00%    100.00% |           0      0.00%    100.00% |           0      0.00%    100.00%
system.noc_network.ST.latency_hist_seqr::total     12120154                      
system.noc_network.ST.miss_latency_hist_seqr::bucket_size            1                      
system.noc_network.ST.miss_latency_hist_seqr::max_bucket            9                      
system.noc_network.ST.miss_latency_hist_seqr::samples         1431                      
system.noc_network.ST.miss_latency_hist_seqr |        1431    100.00%    100.00% |           0      0.00%    100.00% |           0      0.00%    100.00% |           0      0.00%    100.00% |           0      0.00%    100.00% |           0      0.00%    100.00% |           0      0.00%    100.00% |           0      0.00%    100.00% |           0      0.00%    100.00% |           0      0.00%    100.00%
system.noc_network.ST.miss_latency_hist_seqr::total         1431                      
system.noc_network.delayHist::bucket_size            4                       # delay histogram for all message
system.noc_network.delayHist::max_bucket           39                       # delay histogram for all message
system.noc_network.delayHist::samples        53714221                       # delay histogram for all message
system.noc_network.delayHist::mean          14.046989                       # delay histogram for all message
system.noc_network.delayHist::gmean         12.800671                       # delay histogram for all message
system.noc_network.delayHist::stdev          6.269659                       # delay histogram for all message
system.noc_network.delayHist             |           0      0.00%      0.00% |     3953142      7.36%      7.36% |    25413669     47.31%     54.67% |     9274333     17.27%     71.94% |      615068      1.15%     73.08% |     6290406     11.71%     84.79% |     7207680     13.42%     98.21% |      825656      1.54%     99.75% |      134267      0.25%    100.00% |           0      0.00%    100.00% # delay histogram for all message
system.noc_network.delayHist::total          53714221                       # delay histogram for all message
system.noc_network.delayVCHist.vnet_1::bucket_size            4                       # delay histogram for vnet_1
system.noc_network.delayVCHist.vnet_1::max_bucket           39                       # delay histogram for vnet_1
system.noc_network.delayVCHist.vnet_1::samples     26857426                       # delay histogram for vnet_1
system.noc_network.delayVCHist.vnet_1::mean    11.718489                       # delay histogram for vnet_1
system.noc_network.delayVCHist.vnet_1::gmean    11.673744                       # delay histogram for vnet_1
system.noc_network.delayVCHist.vnet_1::stdev     1.061601                       # delay histogram for vnet_1
system.noc_network.delayVCHist.vnet_1    |           0      0.00%      0.00% |           0      0.00%      0.00% |    17629865     65.64%     65.64% |     9048818     33.69%     99.33% |      178742      0.67%    100.00% |           1      0.00%    100.00% |           0      0.00%    100.00% |           0      0.00%    100.00% |           0      0.00%    100.00% |           0      0.00%    100.00% # delay histogram for vnet_1
system.noc_network.delayVCHist.vnet_1::total     26857426                       # delay histogram for vnet_1
system.noc_network.delayVCHist.vnet_2::bucket_size            4                       # delay histogram for vnet_2
system.noc_network.delayVCHist.vnet_2::max_bucket           39                       # delay histogram for vnet_2
system.noc_network.delayVCHist.vnet_2::samples     26856795                       # delay histogram for vnet_2
system.noc_network.delayVCHist.vnet_2::mean    16.375543                       # delay histogram for vnet_2
system.noc_network.delayVCHist.vnet_2::gmean    14.036416                       # delay histogram for vnet_2
system.noc_network.delayVCHist.vnet_2::stdev     8.163757                       # delay histogram for vnet_2
system.noc_network.delayVCHist.vnet_2    |           0      0.00%      0.00% |     3953142     14.72%     14.72% |     7783804     28.98%     43.70% |      225515      0.84%     44.54% |      436326      1.62%     46.17% |     6290405     23.42%     69.59% |     7207680     26.84%     96.43% |      825656      3.07%     99.50% |      134267      0.50%    100.00% |           0      0.00%    100.00% # delay histogram for vnet_2
system.noc_network.delayVCHist.vnet_2::total     26856795                       # delay histogram for vnet_2
system.noc_network.hit_latency_hist_seqr::bucket_size            1                      
system.noc_network.hit_latency_hist_seqr::max_bucket            9                      
system.noc_network.hit_latency_hist_seqr::samples     81702586                      
system.noc_network.hit_latency_hist_seqr |    81702586    100.00%    100.00% |           0      0.00%    100.00% |           0      0.00%    100.00% |           0      0.00%    100.00% |           0      0.00%    100.00% |           0      0.00%    100.00% |           0      0.00%    100.00% |           0      0.00%    100.00% |           0      0.00%    100.00% |           0      0.00%    100.00%
system.noc_network.hit_latency_hist_seqr::total     81702586                      
system.noc_network.latency_hist_seqr::bucket_size            8                      
system.noc_network.latency_hist_seqr::max_bucket           79                      
system.noc_network.latency_hist_seqr::samples    108560012                      
system.noc_network.latency_hist_seqr::mean     0.000001                      
system.noc_network.latency_hist_seqr::stdev     0.006910                      
system.noc_network.latency_hist_seqr     |   108560011    100.00%    100.00% |           0      0.00%    100.00% |           0      0.00%    100.00% |           0      0.00%    100.00% |           0      0.00%    100.00% |           0      0.00%    100.00% |           0      0.00%    100.00% |           0      0.00%    100.00% |           0      0.00%    100.00% |           1      0.00%    100.00%
system.noc_network.latency_hist_seqr::total    108560012                      
system.noc_network.miss_latency_hist_seqr::bucket_size            8                      
[...]
system.noc_network.socket_controllers5.mem_ctrl.rdPerTurnAround::0-7           28      4.66%      4.66% # Reads before turning the bus around for writes
system.noc_network.socket_controllers5.mem_ctrl.rdPerTurnAround::8-15          143     23.79%     28.45% # Reads before turning the bus around for writes
system.noc_network.socket_controllers5.mem_ctrl.rdPerTurnAround::16-23          413     68.72%     97.17% # Reads before turning the bus around for writes
system.noc_network.socket_controllers5.mem_ctrl.rdPerTurnAround::24-31            6      1.00%     98.17% # Reads before turning the bus around for writes
system.noc_network.socket_controllers5.mem_ctrl.rdPerTurnAround::32-39            3      0.50%     98.67% # Reads before turning the bus around for writes
system.noc_network.socket_controllers5.mem_ctrl.rdPerTurnAround::40-47            3      0.50%     99.17% # Reads before turning the bus around for writes
system.noc_network.socket_controllers5.mem_ctrl.rdPerTurnAround::48-55            2      0.33%     99.50% # Reads before turning the bus around for writes
system.noc_network.socket_controllers5.mem_ctrl.rdPerTurnAround::56-63            1      0.17%     99.67% # Reads before turning the bus around for writes
system.noc_network.socket_controllers5.mem_ctrl.rdPerTurnAround::88-95            1      0.17%     99.83% # Reads before turning the bus around for writes
system.noc_network.socket_controllers5.mem_ctrl.rdPerTurnAround::296-303            1      0.17%    100.00% # Reads before turning the bus around for writes
system.noc_network.socket_controllers5.mem_ctrl.rdPerTurnAround::total          601                       # Reads before turning the bus around for writes
system.noc_network.socket_controllers5.mem_ctrl.wrPerTurnAround::samples          601                       # Writes before turning the bus around for reads
system.noc_network.socket_controllers5.mem_ctrl.wrPerTurnAround::mean    16.229617                       # Writes before turning the bus around for reads
system.noc_network.socket_controllers5.mem_ctrl.wrPerTurnAround::gmean    16.217830                       # Writes before turning the bus around for reads
system.noc_network.socket_controllers5.mem_ctrl.wrPerTurnAround::stdev     0.638113                       # Writes before turning the bus around for reads
system.noc_network.socket_controllers5.mem_ctrl.wrPerTurnAround::16          532     88.52%     88.52% # Writes before turning the bus around for reads
system.noc_network.socket_controllers5.mem_ctrl.wrPerTurnAround::18           69     11.48%    100.00% # Writes before turning the bus around for reads
system.noc_network.socket_controllers5.mem_ctrl.wrPerTurnAround::total          601                       # Writes before turning the bus around for reads
system.noc_network.socket_controllers5.mem_ctrl.bytesReadWrQ        58112                       # Total number of bytes read from write queue
system.noc_network.socket_controllers5.mem_ctrl.bytesReadSys       677760                       # Total read bytes from the system interface side
system.noc_network.socket_controllers5.mem_ctrl.bytesWrittenSys       645696                       # Total written bytes from the system interface side
system.noc_network.socket_controllers5.mem_ctrl.avgRdBWSys         1.03                       # Average system read bandwidth in MiByte/s
system.noc_network.socket_controllers5.mem_ctrl.avgWrBWSys         0.98                       # Average system write bandwidth in MiByte/s
system.noc_network.socket_controllers5.mem_ctrl.totGap 659194354000                       # Total gap between requests
system.noc_network.socket_controllers5.mem_ctrl.avgGap  31877477.34                       # Average gap between requests
system.noc_network.socket_controllers5.mem_ctrl.requestorReadBytes::.noc_network.socket_controllers5       619648                       # Per-requestor bytes read from memory
system.noc_network.socket_controllers5.mem_ctrl.requestorWriteBytes::.noc_network.socket_controllers5       624256                       # Per-requestor bytes write to memory
system.noc_network.socket_controllers5.mem_ctrl.requestorReadRate::.noc_network.socket_controllers5 940007.942724880180                       # Per-requestor bytes read from memory rate (Bytes/sec)
system.noc_network.socket_controllers5.mem_ctrl.requestorWriteRate::.noc_network.socket_controllers5 946998.293052931316                       # Per-requestor bytes write to memory rate (Bytes/sec)
system.noc_network.socket_controllers5.mem_ctrl.requestorReadAccesses::.noc_network.socket_controllers5        10590                       # Per-requestor read serviced memory accesses
system.noc_network.socket_controllers5.mem_ctrl.requestorWriteAccesses::.noc_network.socket_controllers5        10089                       # Per-requestor write serviced memory accesses
system.noc_network.socket_controllers5.mem_ctrl.requestorReadTotalLat::.noc_network.socket_controllers5    203738606                       # Per-requestor read total memory access latency
system.noc_network.socket_controllers5.mem_ctrl.requestorWriteTotalLat::.noc_network.socket_controllers5 36708371316772                       # Per-requestor write total memory access latency
system.noc_network.socket_controllers5.mem_ctrl.requestorReadAvgLat::.noc_network.socket_controllers5     19238.77                       # Per-requestor read average memory access latency
system.noc_network.socket_controllers5.mem_ctrl.requestorWriteAvgLat::.noc_network.socket_controllers5 3638454883.22                       # Per-requestor write average memory access latency
system.noc_network.socket_controllers5.mem_ctrl.nvm.bytes_read::.noc_network.socket_controllers5       677760                       # Number of bytes read from this memory
system.noc_network.socket_controllers5.mem_ctrl.nvm.bytes_read::total       677760                       # Number of bytes read from this memory
system.noc_network.socket_controllers5.mem_ctrl.nvm.bytes_written::.noc_network.socket_controllers5       645696                       # Number of bytes written to this memory
system.noc_network.socket_controllers5.mem_ctrl.nvm.bytes_written::total       645696                       # Number of bytes written to this memory
system.noc_network.socket_controllers5.mem_ctrl.nvm.num_reads::.noc_network.socket_controllers5        10590                       # Number of read requests responded to by this memory
system.noc_network.socket_controllers5.mem_ctrl.nvm.num_reads::total        10590                       # Number of read requests responded to by this memory
system.noc_network.socket_controllers5.mem_ctrl.nvm.num_writes::.noc_network.socket_controllers5        10089                       # Number of write requests responded to by this memory
system.noc_network.socket_controllers5.mem_ctrl.nvm.num_writes::total        10089                       # Number of write requests responded to by this memory
system.noc_network.socket_controllers5.mem_ctrl.nvm.bw_read::.noc_network.socket_controllers5      1028164                       # Total read bandwidth from this memory (bytes/s)
system.noc_network.socket_controllers5.mem_ctrl.nvm.bw_read::total      1028164                       # Total read bandwidth from this memory (bytes/s)
system.noc_network.socket_controllers5.mem_ctrl.nvm.bw_write::.noc_network.socket_controllers5       979523                       # Write bandwidth from this memory (bytes/s)
system.noc_network.socket_controllers5.mem_ctrl.nvm.bw_write::total       979523                       # Write bandwidth from this memory (bytes/s)
system.noc_network.socket_controllers5.mem_ctrl.nvm.bw_total::.noc_network.socket_controllers5      2007687                       # Total bandwidth to/from this memory (bytes/s)
system.noc_network.socket_controllers5.mem_ctrl.nvm.bw_total::total      2007687                       # Total bandwidth to/from this memory (bytes/s)
system.noc_network.socket_controllers5.mem_ctrl.nvm.readBursts         9682                       # Number of NVM read bursts
system.noc_network.socket_controllers5.mem_ctrl.nvm.writeBursts         9754                       # Number of NVM write bursts
system.noc_network.socket_controllers5.mem_ctrl.nvm.perBankRdBursts::0          600                       # Per bank write bursts
system.noc_network.socket_controllers5.mem_ctrl.nvm.perBankRdBursts::1          608                       # Per bank write bursts
system.noc_network.socket_controllers5.mem_ctrl.nvm.perBankRdBursts::2          579                       # Per bank write bursts
system.noc_network.socket_controllers5.mem_ctrl.nvm.perBankRdBursts::3          595                       # Per bank write bursts
system.noc_network.socket_controllers5.mem_ctrl.nvm.perBankRdBursts::4          635                       # Per bank write bursts
system.noc_network.socket_controllers5.mem_ctrl.nvm.perBankRdBursts::5          570                       # Per bank write bursts
system.noc_network.socket_controllers5.mem_ctrl.nvm.perBankRdBursts::6          609                       # Per bank write bursts
system.noc_network.socket_controllers5.mem_ctrl.nvm.perBankRdBursts::7          595                       # Per bank write bursts
system.noc_network.socket_controllers5.mem_ctrl.nvm.perBankRdBursts::8          644                       # Per bank write bursts
system.noc_network.socket_controllers5.mem_ctrl.nvm.perBankRdBursts::9          619                       # Per bank write bursts
system.noc_network.socket_controllers5.mem_ctrl.nvm.perBankRdBursts::10          591                       # Per bank write bursts
system.noc_network.socket_controllers5.mem_ctrl.nvm.perBankRdBursts::11          588                       # Per bank write bursts
system.noc_network.socket_controllers5.mem_ctrl.nvm.perBankRdBursts::12          586                       # Per bank write bursts
system.noc_network.socket_controllers5.mem_ctrl.nvm.perBankRdBursts::13          668                       # Per bank write bursts
system.noc_network.socket_controllers5.mem_ctrl.nvm.perBankRdBursts::14          581                       # Per bank write bursts
system.noc_network.socket_controllers5.mem_ctrl.nvm.perBankRdBursts::15          614                       # Per bank write bursts
system.noc_network.socket_controllers5.mem_ctrl.nvm.perBankWrBursts::0          642                       # Per bank write bursts
system.noc_network.socket_controllers5.mem_ctrl.nvm.perBankWrBursts::1          643                       # Per bank write bursts
system.noc_network.socket_controllers5.mem_ctrl.nvm.perBankWrBursts::2          580                       # Per bank write bursts
system.noc_network.socket_controllers5.mem_ctrl.nvm.perBankWrBursts::3          599                       # Per bank write bursts
system.noc_network.socket_controllers5.mem_ctrl.nvm.perBankWrBursts::4          636                       # Per bank write bursts
system.noc_network.socket_controllers5.mem_ctrl.nvm.perBankWrBursts::5          580                       # Per bank write bursts
system.noc_network.socket_controllers5.mem_ctrl.nvm.perBankWrBursts::6          600                       # Per bank write bursts
system.noc_network.socket_controllers5.mem_ctrl.nvm.perBankWrBursts::7          586                       # Per bank write bursts
system.noc_network.socket_controllers5.mem_ctrl.nvm.perBankWrBursts::8          654                       # Per bank write bursts
system.noc_network.socket_controllers5.mem_ctrl.nvm.perBankWrBursts::9          639                       # Per bank write bursts
system.noc_network.socket_controllers5.mem_ctrl.nvm.perBankWrBursts::10          581                       # Per bank write bursts
system.noc_network.socket_controllers5.mem_ctrl.nvm.perBankWrBursts::11          569                       # Per bank write bursts
system.noc_network.socket_controllers5.mem_ctrl.nvm.perBankWrBursts::12          578                       # Per bank write bursts
system.noc_network.socket_controllers5.mem_ctrl.nvm.perBankWrBursts::13          669                       # Per bank write bursts
system.noc_network.socket_controllers5.mem_ctrl.nvm.perBankWrBursts::14          572                       # Per bank write bursts
system.noc_network.socket_controllers5.mem_ctrl.nvm.perBankWrBursts::15          626                       # Per bank write bursts
system.noc_network.socket_controllers5.mem_ctrl.nvm.totQLat     34381062                       # Total ticks spent queuing
system.noc_network.socket_controllers5.mem_ctrl.nvm.totBusLat     32260424                       # Total ticks spent in databus transfers
system.noc_network.socket_controllers5.mem_ctrl.nvm.totMemAccLat    203738606                       # Total ticks spent from burst creation until serviced by the NVM
system.noc_network.socket_controllers5.mem_ctrl.nvm.avgQLat      3551.03                       # Average queueing delay per NVM burst
system.noc_network.socket_controllers5.mem_ctrl.nvm.avgBusLat      3332.00                       # Average bus latency per NVM burst
system.noc_network.socket_controllers5.mem_ctrl.nvm.avgMemAccLat     21043.03                       # Average memory access latency per NVM burst
system.noc_network.socket_controllers5.mem_ctrl.nvm.bytesRead       619648                       # Total number of bytes read from DRAM
system.noc_network.socket_controllers5.mem_ctrl.nvm.bytesWritten       624256                       # Total number of bytes written to DRAM
system.noc_network.socket_controllers5.mem_ctrl.nvm.avgRdBW         0.94                       # Average DRAM read bandwidth in MiBytes/s
system.noc_network.socket_controllers5.mem_ctrl.nvm.avgWrBW         0.95                       # Average DRAM write bandwidth in MiBytes/s
system.noc_network.socket_controllers5.mem_ctrl.nvm.peakBW     19207.00                       # Theoretical peak bandwidth in MiByte/s
system.noc_network.socket_controllers5.mem_ctrl.nvm.busUtil         0.01                       # NVM Data bus utilization in percentage
system.noc_network.socket_controllers5.mem_ctrl.nvm.busUtilRead         0.00                       # NVM Data bus read utilization in percentage
system.noc_network.socket_controllers5.mem_ctrl.nvm.busUtilWrite         0.00                       # NVM Data bus write utilization in percentage
system.noc_network.socket_controllers5.mem_ctrl.nvm.pendingReads::samples         9682                       # Reads issued to NVM for which data has not been transferred
system.noc_network.socket_controllers5.mem_ctrl.nvm.pendingReads::mean     0.000310                       # Reads issued to NVM for which data has not been transferred
system.noc_network.socket_controllers5.mem_ctrl.nvm.pendingReads::stdev     0.017601                       # Reads issued to NVM for which data has not been transferred
system.noc_network.socket_controllers5.mem_ctrl.nvm.pendingReads::0         9679     99.97%     99.97% # Reads issued to NVM for which data has not been transferred
system.noc_network.socket_controllers5.mem_ctrl.nvm.pendingReads::1            3      0.03%    100.00% # Reads issued to NVM for which data has not been transferred
system.noc_network.socket_controllers5.mem_ctrl.nvm.pendingReads::total         9682                       # Reads issued to NVM for which data has not been transferred
system.noc_network.socket_controllers5.mem_ctrl.nvm.pendingWrites::samples         9754                       # Number of outstanding writes to NVM
system.noc_network.socket_controllers5.mem_ctrl.nvm.pendingWrites::mean     5.706069                       # Number of outstanding writes to NVM
system.noc_network.socket_controllers5.mem_ctrl.nvm.pendingWrites::gmean     5.113599                       # Number of outstanding writes to NVM
system.noc_network.socket_controllers5.mem_ctrl.nvm.pendingWrites::stdev     1.983225                       # Number of outstanding writes to NVM
system.noc_network.socket_controllers5.mem_ctrl.nvm.pendingWrites::1          601      6.16%      6.16% # Number of outstanding writes to NVM
system.noc_network.socket_controllers5.mem_ctrl.nvm.pendingWrites::2          601      6.16%     12.32% # Number of outstanding writes to NVM
system.noc_network.socket_controllers5.mem_ctrl.nvm.pendingWrites::3          601      6.16%     18.48% # Number of outstanding writes to NVM
system.noc_network.socket_controllers5.mem_ctrl.nvm.pendingWrites::4          601      6.16%     24.65% # Number of outstanding writes to NVM
system.noc_network.socket_controllers5.mem_ctrl.nvm.pendingWrites::5          601      6.16%     30.81% # Number of outstanding writes to NVM
system.noc_network.socket_controllers5.mem_ctrl.nvm.pendingWrites::6          601      6.16%     36.97% # Number of outstanding writes to NVM
system.noc_network.socket_controllers5.mem_ctrl.nvm.pendingWrites::7         6148     63.03%    100.00% # Number of outstanding writes to NVM
system.noc_network.socket_controllers5.mem_ctrl.nvm.pendingWrites::total         9754                       # Number of outstanding writes to NVM
system.noc_network.socket_controllers5.mem_ctrl.nvm.bytesPerBank::samples        13235                       # Bytes read within a bank before loading new bank
system.noc_network.socket_controllers5.mem_ctrl.nvm.bytesPerBank::mean    93.956932                       # Bytes read within a bank before loading new bank
system.noc_network.socket_controllers5.mem_ctrl.nvm.bytesPerBank::gmean    83.193083                       # Bytes read within a bank before loading new bank
system.noc_network.socket_controllers5.mem_ctrl.nvm.bytesPerBank::stdev    55.675686                       # Bytes read within a bank before loading new bank
system.noc_network.socket_controllers5.mem_ctrl.nvm.bytesPerBank::64-67         9563     72.26%     72.26% # Bytes read within a bank before loading new bank
system.noc_network.socket_controllers5.mem_ctrl.nvm.bytesPerBank::128-131         1961     14.82%     87.07% # Bytes read within a bank before loading new bank
system.noc_network.socket_controllers5.mem_ctrl.nvm.bytesPerBank::192-195          913      6.90%     93.97% # Bytes read within a bank before loading new bank
system.noc_network.socket_controllers5.mem_ctrl.nvm.bytesPerBank::256-259          791      5.98%     99.95% # Bytes read within a bank before loading new bank
system.noc_network.socket_controllers5.mem_ctrl.nvm.bytesPerBank::320-323            3      0.02%     99.97% # Bytes read within a bank before loading new bank
system.noc_network.socket_controllers5.mem_ctrl.nvm.bytesPerBank::384-387            2      0.02%     99.98% # Bytes read within a bank before loading new bank
system.noc_network.socket_controllers5.mem_ctrl.nvm.bytesPerBank::448-451            1      0.01%     99.99% # Bytes read within a bank before loading new bank
system.noc_network.socket_controllers5.mem_ctrl.nvm.bytesPerBank::512-515            1      0.01%    100.00% # Bytes read within a bank before loading new bank
system.noc_network.socket_controllers5.mem_ctrl.nvm.bytesPerBank::total        13235                       # Bytes read within a bank before loading new bank
system.noc_network.socket_controllers5.mem_ctrl.nvm.power_state.pwrStateResidencyTicks::UNDEFINED 659194430000                       # Cumulative time (in ticks) in various power states
system.noc_network.socket_controllers5.mem_ctrl.power_state.pwrStateResidencyTicks::UNDEFINED 659194430000                       # Cumulative time (in ticks) in various power states
system.noc_network.socket_controllers5.power_state.pwrStateResidencyTicks::UNDEFINED 659194430000                       # Cumulative time (in ticks) in various power states
system.noc_network.sys_port_proxy.power_state.pwrStateResidencyTicks::UNDEFINED 659194430000                       # Cumulative time (in ticks) in various power states
system.voltage_domain.voltage                       1                       # Voltage in Volts

---------- End Simulation Statistics   ----------
