
---------- Begin Simulation Statistics ----------
final_tick                               925457944000                       # Number of ticks from beginning of simulation (restored from checkpoints and never reset)
host_inst_rate                                 513705                       # Simulator instruction rate (inst/s)
host_mem_usage                                1175008                       # Number of bytes of host memory used
host_op_rate                                   877806                       # Simulator op (including micro ops) rate (op/s)
host_seconds                                    99.02                       # Real time elapsed on the host
host_tick_rate                             9346098738                       # Simulator tick rate (ticks/s)
sim_freq                                 1000000000000                       # Frequency of simulated ticks
sim_insts                                    50867394                       # Number of instructions simulated
sim_ops                                      86921024                       # Number of ops (including micro ops) simulated
sim_seconds                                  0.925458                       # Number of seconds simulated
sim_ticks                                925457944000                       # Number of ticks simulated
system.cpu.Branches                           1999018                       # Number of branches fetched
system.cpu.committedInsts                    50867394                       # Number of instructions committed
system.cpu.committedOps                      86921024                       # Number of ops (including micro ops) committed
system.cpu.idle_fraction                     0.000000                       # Percentage of idle cycles
system.cpu.not_idle_fraction                 1.000000                       # Percentage of non-idle cycles
system.cpu.numCycles                        925457944                       # number of cpu cycles simulated
system.cpu.numWorkItemsCompleted                    0                       # number of work items this cpu completed
system.cpu.numWorkItemsStarted                      0                       # number of work items this cpu started
system.cpu.num_busy_cycles               925457943.999000                       # Number of busy cycles
system.cpu.num_cc_register_reads              9727568                       # number of times the CC registers were read
system.cpu.num_cc_register_writes            24185580                       # number of times the CC registers were written
system.cpu.num_conditional_control_insts      1878489                       # number of instructions that are conditional controls
system.cpu.num_fp_alu_accesses                  63499                       # Number of float alu accesses
system.cpu.num_fp_insts                         63499                       # number of float instructions
system.cpu.num_fp_register_reads                80097                       # number of times the floating registers were read
system.cpu.num_fp_register_writes               54497                       # number of times the floating registers were written
system.cpu.num_func_calls                        3766                       # number of times a function call or return occured
system.cpu.num_idle_cycles                   0.001000                       # Number of idle cycles
system.cpu.num_int_alu_accesses              86871439                       # Number of integer alu accesses
system.cpu.num_int_insts                     86871439                       # number of integer instructions
system.cpu.num_int_register_reads           218538554                       # number of times the integer registers were read
system.cpu.num_int_register_writes           76450163                       # number of times the integer registers were written
system.cpu.num_load_insts                    25487739                       # Number of load instructions
system.cpu.num_mem_refs                      37276395                       # number of memory refs
system.cpu.num_store_insts                   11788656                       # Number of store instructions
system.cpu.num_vec_alu_accesses                     0                       # Number of vector alu accesses
system.cpu.num_vec_insts                            0                       # number of vector instructions
system.cpu.num_vec_register_reads                   0                       # number of times the vector registers were read
system.cpu.num_vec_register_writes                  0                       # number of times the vector registers were written
system.cpu.op_class::No_OpClass                 10152      0.01%      0.01% # Class of executed instruction
system.cpu.op_class::IntAlu                  46269065     53.23%     53.24% # Class of executed instruction
system.cpu.op_class::IntMult                  3274393      3.77%     57.01% # Class of executed instruction
system.cpu.op_class::IntDiv                     50613      0.06%     57.07% # Class of executed instruction
system.cpu.op_class::FloatAdd                   12077      0.01%     57.08% # Class of executed instruction
system.cpu.op_class::FloatCmp                       0      0.00%     57.08% # Class of executed instruction
system.cpu.op_class::FloatCvt                       0      0.00%     57.08% # Class of executed instruction
system.cpu.op_class::FloatMult                      0      0.00%     57.08% # Class of executed instruction
system.cpu.op_class::FloatMultAcc                   0      0.00%     57.08% # Class of executed instruction
system.cpu.op_class::FloatDiv                       0      0.00%     57.08% # Class of executed instruction
system.cpu.op_class::FloatMisc                      0      0.00%     57.08% # Class of executed instruction
system.cpu.op_class::FloatSqrt                      0      0.00%     57.08% # Class of executed instruction
system.cpu.op_class::SimdAdd                        0      0.00%     57.08% # Class of executed instruction
system.cpu.op_class::SimdAddAcc                     0      0.00%     57.08% # Class of executed instruction
system.cpu.op_class::SimdAlu                     2648      0.00%     57.09% # Class of executed instruction
system.cpu.op_class::SimdCmp                        0      0.00%     57.09% # Class of executed instruction
system.cpu.op_class::SimdCvt                       76      0.00%     57.09% # Class of executed instruction
system.cpu.op_class::SimdMisc                    4192      0.00%     57.09% # Class of executed instruction
system.cpu.op_class::SimdMult                       0      0.00%     57.09% # Class of executed instruction
system.cpu.op_class::SimdMultAcc                    0      0.00%     57.09% # Class of executed instruction
system.cpu.op_class::SimdShift                      0      0.00%     57.09% # Class of executed instruction
system.cpu.op_class::SimdShiftAcc                   0      0.00%     57.09% # Class of executed instruction
system.cpu.op_class::SimdDiv                        0      0.00%     57.09% # Class of executed instruction
system.cpu.op_class::SimdSqrt                       0      0.00%     57.09% # Class of executed instruction
system.cpu.op_class::SimdFloatAdd                7362      0.01%     57.10% # Class of executed instruction
system.cpu.op_class::SimdFloatAlu                   0      0.00%     57.10% # Class of executed instruction
system.cpu.op_class::SimdFloatCmp                   0      0.00%     57.10% # Class of executed instruction
system.cpu.op_class::SimdFloatCvt                4721      0.01%     57.10% # Class of executed instruction
system.cpu.op_class::SimdFloatDiv                 738      0.00%     57.10% # Class of executed instruction
system.cpu.op_class::SimdFloatMisc                  0      0.00%     57.10% # Class of executed instruction
system.cpu.op_class::SimdFloatMult               8613      0.01%     57.11% # Class of executed instruction
system.cpu.op_class::SimdFloatMultAcc               0      0.00%     57.11% # Class of executed instruction
system.cpu.op_class::SimdFloatSqrt                  0      0.00%     57.11% # Class of executed instruction
system.cpu.op_class::SimdReduceAdd                  0      0.00%     57.11% # Class of executed instruction
system.cpu.op_class::SimdReduceAlu                  0      0.00%     57.11% # Class of executed instruction
system.cpu.op_class::SimdReduceCmp                  0      0.00%     57.11% # Class of executed instruction
system.cpu.op_class::SimdFloatReduceAdd             0      0.00%     57.11% # Class of executed instruction
system.cpu.op_class::SimdFloatReduceCmp             0      0.00%     57.11% # Class of executed instruction
system.cpu.op_class::SimdAes                        0      0.00%     57.11% # Class of executed instruction
system.cpu.op_class::SimdAesMix                     0      0.00%     57.11% # Class of executed instruction
system.cpu.op_class::SimdSha1Hash                   0      0.00%     57.11% # Class of executed instruction
system.cpu.op_class::SimdSha1Hash2                  0      0.00%     57.11% # Class of executed instruction
system.cpu.op_class::SimdSha256Hash                 0      0.00%     57.11% # Class of executed instruction
system.cpu.op_class::SimdSha256Hash2                0      0.00%     57.11% # Class of executed instruction
system.cpu.op_class::SimdShaSigma2                  0      0.00%     57.11% # Class of executed instruction
system.cpu.op_class::SimdShaSigma3                  0      0.00%     57.11% # Class of executed instruction
system.cpu.op_class::SimdPredAlu                    0      0.00%     57.11% # Class of executed instruction
system.cpu.op_class::MemRead                 25472286     29.31%     86.42% # Class of executed instruction
system.cpu.op_class::MemWrite                11784146     13.56%     99.98% # Class of executed instruction
system.cpu.op_class::FloatMemRead               15453      0.02%     99.99% # Class of executed instruction
system.cpu.op_class::FloatMemWrite               4510      0.01%    100.00% # Class of executed instruction
system.cpu.op_class::IprAccess                      0      0.00%    100.00% # Class of executed instruction
system.cpu.op_class::InstPrefetch                   0      0.00%    100.00% # Class of executed instruction
system.cpu.op_class::total                   86921045                       # Class of executed instruction
system.cpu.workload.numSyscalls                    17                       # Number of system calls
system.l2bus.snoop_filter.hit_multi_requests            0                       # Number of requests hitting in the snoop filter with multiple (>1) holders of the requested data.
system.l2bus.snoop_filter.hit_multi_snoops            0                       # Number of snoops hitting in the snoop filter with multiple (>1) holders of the requested data.
system.l2bus.snoop_filter.hit_single_requests     18341544                       # Number of requests hitting in the snoop filter with a single holder of the requested data.
system.l2bus.snoop_filter.hit_single_snoops        35726                       # Number of snoops hitting in the snoop filter with a single holder of the requested data.
system.l2bus.snoop_filter.tot_requests       36683092                       # Total number of requests made to the snoop filter.
system.l2bus.snoop_filter.tot_snoops            35726                       # Total number of snoops made to the snoop filter.
system.membus.snoop_filter.hit_multi_requests            0                       # Number of requests hitting in the snoop filter with multiple (>1) holders of the requested data.
system.membus.snoop_filter.hit_multi_snoops            0                       # Number of snoops hitting in the snoop filter with multiple (>1) holders of the requested data.
system.membus.snoop_filter.hit_single_requests       492044                       # Number of requests hitting in the snoop filter with a single holder of the requested data.
system.membus.snoop_filter.hit_single_snoops            0                       # Number of snoops hitting in the snoop filter with a single holder of the requested data.
system.membus.snoop_filter.tot_requests        984097                       # Total number of requests made to the snoop filter.
system.membus.snoop_filter.tot_snoops               0                       # Total number of snoops made to the snoop filter.
system.clk_domain.clock                          1000                       # Clock period in ticks
system.clk_domain.voltage_domain.voltage            1                       # Voltage in Volts
system.cpu.dcache.demand_hits::.cpu.data     24184238                       # number of demand (read+write) hits
system.cpu.dcache.demand_hits::total         24184238                       # number of demand (read+write) hits
system.cpu.dcache.overall_hits::.cpu.data     24184238                       # number of overall hits
system.cpu.dcache.overall_hits::total        24184238                       # number of overall hits
system.cpu.dcache.demand_misses::.cpu.data     13092491                       # number of demand (read+write) misses
system.cpu.dcache.demand_misses::total       13092491                       # number of demand (read+write) misses
system.cpu.dcache.overall_misses::.cpu.data     13092491                       # number of overall misses
system.cpu.dcache.overall_misses::total      13092491                       # number of overall misses
system.cpu.dcache.demand_miss_latency::.cpu.data 621153851000                       # number of demand (read+write) miss cycles
system.cpu.dcache.demand_miss_latency::total 621153851000                       # number of demand (read+write) miss cycles
system.cpu.dcache.overall_miss_latency::.cpu.data 621153851000                       # number of overall miss cycles
system.cpu.dcache.overall_miss_latency::total 621153851000                       # number of overall miss cycles
system.cpu.dcache.demand_accesses::.cpu.data     37276729                       # number of demand (read+write) accesses
system.cpu.dcache.demand_accesses::total     37276729                       # number of demand (read+write) accesses
system.cpu.dcache.overall_accesses::.cpu.data     37276729                       # number of overall (read+write) accesses
system.cpu.dcache.overall_accesses::total     37276729                       # number of overall (read+write) accesses
system.cpu.dcache.demand_miss_rate::.cpu.data     0.351224                       # miss rate for demand accesses
system.cpu.dcache.demand_miss_rate::total     0.351224                       # miss rate for demand accesses
system.cpu.dcache.overall_miss_rate::.cpu.data     0.351224                       # miss rate for overall accesses
system.cpu.dcache.overall_miss_rate::total     0.351224                       # miss rate for overall accesses
system.cpu.dcache.demand_avg_miss_latency::.cpu.data 47443.519419                       # average overall miss latency
system.cpu.dcache.demand_avg_miss_latency::total 47443.519419                       # average overall miss latency
system.cpu.dcache.overall_avg_miss_latency::.cpu.data 47443.519419                       # average overall miss latency
system.cpu.dcache.overall_avg_miss_latency::total 47443.519419                       # average overall miss latency
system.cpu.dcache.blocked_cycles::no_mshrs            0                       # number of cycles access was blocked
system.cpu.dcache.blocked_cycles::no_targets            0                       # number of cycles access was blocked
system.cpu.dcache.blocked::no_mshrs                 0                       # number of cycles access was blocked
system.cpu.dcache.blocked::no_targets               0                       # number of cycles access was blocked
system.cpu.dcache.avg_blocked_cycles::no_mshrs          nan                       # average number of cycles each access was blocked
system.cpu.dcache.avg_blocked_cycles::no_targets          nan                       # average number of cycles each access was blocked
system.cpu.dcache.writebacks::.writebacks      8176514                       # number of writebacks
system.cpu.dcache.writebacks::total           8176514                       # number of writebacks
system.cpu.dcache.demand_mshr_misses::.cpu.data     13092491                       # number of demand (read+write) MSHR misses
system.cpu.dcache.demand_mshr_misses::total     13092491                       # number of demand (read+write) MSHR misses
system.cpu.dcache.overall_mshr_misses::.cpu.data     13092491                       # number of overall MSHR misses
system.cpu.dcache.overall_mshr_misses::total     13092491                       # number of overall MSHR misses
system.cpu.dcache.demand_mshr_miss_latency::.cpu.data 594968869000                       # number of demand (read+write) MSHR miss cycles
system.cpu.dcache.demand_mshr_miss_latency::total 594968869000                       # number of demand (read+write) MSHR miss cycles
system.cpu.dcache.overall_mshr_miss_latency::.cpu.data 594968869000                       # number of overall MSHR miss cycles
system.cpu.dcache.overall_mshr_miss_latency::total 594968869000                       # number of overall MSHR miss cycles
system.cpu.dcache.demand_mshr_miss_rate::.cpu.data     0.351224                       # mshr miss rate for demand accesses
system.cpu.dcache.demand_mshr_miss_rate::total     0.351224                       # mshr miss rate for demand accesses
system.cpu.dcache.overall_mshr_miss_rate::.cpu.data     0.351224                       # mshr miss rate for overall accesses
system.cpu.dcache.overall_mshr_miss_rate::total     0.351224                       # mshr miss rate for overall accesses
system.cpu.dcache.demand_avg_mshr_miss_latency::.cpu.data 45443.519419                       # average overall mshr miss latency
system.cpu.dcache.demand_avg_mshr_miss_latency::total 45443.519419                       # average overall mshr miss latency
system.cpu.dcache.overall_avg_mshr_miss_latency::.cpu.data 45443.519419                       # average overall mshr miss latency
system.cpu.dcache.overall_avg_mshr_miss_latency::total 45443.519419                       # average overall mshr miss latency
system.cpu.dcache.replacements               13092489                       # number of replacements
system.cpu.dcache.ReadReq_hits::.cpu.data     14044946                       # number of ReadReq hits
system.cpu.dcache.ReadReq_hits::total        14044946                       # number of ReadReq hits
system.cpu.dcache.ReadReq_misses::.cpu.data     11442911                       # number of ReadReq misses
system.cpu.dcache.ReadReq_misses::total      11442911                       # number of ReadReq misses
system.cpu.dcache.ReadReq_miss_latency::.cpu.data 522617112000                       # number of ReadReq miss cycles
system.cpu.dcache.ReadReq_miss_latency::total 522617112000                       # number of ReadReq miss cycles
system.cpu.dcache.ReadReq_accesses::.cpu.data     25487857                       # number of ReadReq accesses(hits+misses)
system.cpu.dcache.ReadReq_accesses::total     25487857                       # number of ReadReq accesses(hits+misses)
system.cpu.dcache.ReadReq_miss_rate::.cpu.data     0.448955                       # miss rate for ReadReq accesses
system.cpu.dcache.ReadReq_miss_rate::total     0.448955                       # miss rate for ReadReq accesses
system.cpu.dcache.ReadReq_avg_miss_latency::.cpu.data 45671.692457                       # average ReadReq miss latency
system.cpu.dcache.ReadReq_avg_miss_latency::total 45671.692457                       # average ReadReq miss latency
system.cpu.dcache.ReadReq_mshr_misses::.cpu.data     11442911                       # number of ReadReq MSHR misses
system.cpu.dcache.ReadReq_mshr_misses::total     11442911                       # number of ReadReq MSHR misses
system.cpu.dcache.ReadReq_mshr_miss_latency::.cpu.data 499731290000                       # number of ReadReq MSHR miss cycles
system.cpu.dcache.ReadReq_mshr_miss_latency::total 499731290000                       # number of ReadReq MSHR miss cycles
system.cpu.dcache.ReadReq_mshr_miss_rate::.cpu.data     0.448955                       # mshr miss rate for ReadReq accesses
system.cpu.dcache.ReadReq_mshr_miss_rate::total     0.448955                       # mshr miss rate for ReadReq accesses
system.cpu.dcache.ReadReq_avg_mshr_miss_latency::.cpu.data 43671.692457                       # average ReadReq mshr miss latency
system.cpu.dcache.ReadReq_avg_mshr_miss_latency::total 43671.692457                       # average ReadReq mshr miss latency
system.cpu.dcache.WriteReq_hits::.cpu.data     10139292                       # number of WriteReq hits
system.cpu.dcache.WriteReq_hits::total       10139292                       # number of WriteReq hits
system.cpu.dcache.WriteReq_misses::.cpu.data      1649580                       # number of WriteReq misses
system.cpu.dcache.WriteReq_misses::total      1649580                       # number of WriteReq misses
system.cpu.dcache.WriteReq_miss_latency::.cpu.data  98536739000                       # number of WriteReq miss cycles
system.cpu.dcache.WriteReq_miss_latency::total  98536739000                       # number of WriteReq miss cycles
system.cpu.dcache.WriteReq_accesses::.cpu.data     11788872                       # number of WriteReq accesses(hits+misses)
system.cpu.dcache.WriteReq_accesses::total     11788872                       # number of WriteReq accesses(hits+misses)
system.cpu.dcache.WriteReq_miss_rate::.cpu.data     0.139927                       # miss rate for WriteReq accesses
system.cpu.dcache.WriteReq_miss_rate::total     0.139927                       # miss rate for WriteReq accesses
system.cpu.dcache.WriteReq_avg_miss_latency::.cpu.data 59734.440888                       # average WriteReq miss latency
system.cpu.dcache.WriteReq_avg_miss_latency::total 59734.440888                       # average WriteReq miss latency
system.cpu.dcache.WriteReq_mshr_misses::.cpu.data      1649580                       # number of WriteReq MSHR misses
system.cpu.dcache.WriteReq_mshr_misses::total      1649580                       # number of WriteReq MSHR misses
system.cpu.dcache.WriteReq_mshr_miss_latency::.cpu.data  95237579000                       # number of WriteReq MSHR miss cycles
system.cpu.dcache.WriteReq_mshr_miss_latency::total  95237579000                       # number of WriteReq MSHR miss cycles
system.cpu.dcache.WriteReq_mshr_miss_rate::.cpu.data     0.139927                       # mshr miss rate for WriteReq accesses
system.cpu.dcache.WriteReq_mshr_miss_rate::total     0.139927                       # mshr miss rate for WriteReq accesses
system.cpu.dcache.WriteReq_avg_mshr_miss_latency::.cpu.data 57734.440888                       # average WriteReq mshr miss latency
system.cpu.dcache.WriteReq_avg_mshr_miss_latency::total 57734.440888                       # average WriteReq mshr miss latency
system.cpu.dcache.power_state.pwrStateResidencyTicks::UNDEFINED 925457944000                       # Cumulative time (in ticks) in various power states
system.cpu.dcache.tags.tagsinuse             1.999999                       # Cycle average of tags in use
system.cpu.dcache.tags.total_refs            37276729                       # Total number of references to valid blocks.
system.cpu.dcache.tags.sampled_refs          13092491                       # Sample count of references to valid blocks.
system.cpu.dcache.tags.avg_refs              2.847184                       # Average number of references to valid blocks.
system.cpu.dcache.tags.warmup_cycle            196000                       # Cycle when the warmup percentage was hit.
system.cpu.dcache.tags.occ_blocks::.cpu.data     1.999999                       # Average occupied blocks per requestor
system.cpu.dcache.tags.occ_percent::.cpu.data     1.000000                       # Average percentage of cache occupancy
system.cpu.dcache.tags.occ_percent::total     1.000000                       # Average percentage of cache occupancy
system.cpu.dcache.tags.occ_task_id_blocks::1024            2                       # Occupied blocks per task id
system.cpu.dcache.tags.age_task_id_blocks_1024::0            2                       # Occupied blocks per task id
system.cpu.dcache.tags.occ_task_id_percent::1024            1                       # Percentage of cache occupancy per task id
system.cpu.dcache.tags.tag_accesses          87645949                       # Number of tag accesses
system.cpu.dcache.tags.data_accesses         87645949                       # Number of data accesses
system.cpu.dcache.tags.power_state.pwrStateResidencyTicks::UNDEFINED 925457944000                       # Cumulative time (in ticks) in various power states
system.cpu.dtb.rdAccesses                    25487858                       # TLB accesses on read requests
system.cpu.dtb.wrAccesses                    11788875                       # TLB accesses on write requests
system.cpu.dtb.rdMisses                            15                       # TLB misses on read requests
system.cpu.dtb.wrMisses                            14                       # TLB misses on write requests
system.cpu.dtb.walker.power_state.pwrStateResidencyTicks::UNDEFINED 925457944000                       # Cumulative time (in ticks) in various power states
system.cpu.icache.demand_hits::.cpu.inst     57630038                       # number of demand (read+write) hits
system.cpu.icache.demand_hits::total         57630038                       # number of demand (read+write) hits
system.cpu.icache.overall_hits::.cpu.inst     57630038                       # number of overall hits
system.cpu.icache.overall_hits::total        57630038                       # number of overall hits
system.cpu.icache.demand_misses::.cpu.inst      5249057                       # number of demand (read+write) misses
system.cpu.icache.demand_misses::total        5249057                       # number of demand (read+write) misses
system.cpu.icache.overall_misses::.cpu.inst      5249057                       # number of overall misses
system.cpu.icache.overall_misses::total       5249057                       # number of overall misses
system.cpu.icache.demand_miss_latency::.cpu.inst 140677895000                       # number of demand (read+write) miss cycles
system.cpu.icache.demand_miss_latency::total 140677895000                       # number of demand (read+write) miss cycles
system.cpu.icache.overall_miss_latency::.cpu.inst 140677895000                       # number of overall miss cycles
system.cpu.icache.overall_miss_latency::total 140677895000                       # number of overall miss cycles
system.cpu.icache.demand_accesses::.cpu.inst     62879095                       # number of demand (read+write) accesses
system.cpu.icache.demand_accesses::total     62879095                       # number of demand (read+write) accesses
system.cpu.icache.overall_accesses::.cpu.inst     62879095                       # number of overall (read+write) accesses
system.cpu.icache.overall_accesses::total     62879095                       # number of overall (read+write) accesses
system.cpu.icache.demand_miss_rate::.cpu.inst     0.083479                       # miss rate for demand accesses
system.cpu.icache.demand_miss_rate::total     0.083479                       # miss rate for demand accesses
system.cpu.icache.overall_miss_rate::.cpu.inst     0.083479                       # miss rate for overall accesses
system.cpu.icache.overall_miss_rate::total     0.083479                       # miss rate for overall accesses
system.cpu.icache.demand_avg_miss_latency::.cpu.inst 26800.603423                       # average overall miss latency
system.cpu.icache.demand_avg_miss_latency::total 26800.603423                       # average overall miss latency
system.cpu.icache.overall_avg_miss_latency::.cpu.inst 26800.603423                       # average overall miss latency
system.cpu.icache.overall_avg_miss_latency::total 26800.603423                       # average overall miss latency
system.cpu.icache.blocked_cycles::no_mshrs            0                       # number of cycles access was blocked
system.cpu.icache.blocked_cycles::no_targets            0                       # number of cycles access was blocked
system.cpu.icache.blocked::no_mshrs                 0                       # number of cycles access was blocked
system.cpu.icache.blocked::no_targets               0                       # number of cycles access was blocked
system.cpu.icache.avg_blocked_cycles::no_mshrs          nan                       # average number of cycles each access was blocked
system.cpu.icache.avg_blocked_cycles::no_targets          nan                       # average number of cycles each access was blocked
system.cpu.icache.demand_mshr_misses::.cpu.inst      5249057                       # number of demand (read+write) MSHR misses
system.cpu.icache.demand_mshr_misses::total      5249057                       # number of demand (read+write) MSHR misses
system.cpu.icache.overall_mshr_misses::.cpu.inst      5249057                       # number of overall MSHR misses
system.cpu.icache.overall_mshr_misses::total      5249057                       # number of overall MSHR misses
system.cpu.icache.demand_mshr_miss_latency::.cpu.inst 130179781000                       # number of demand (read+write) MSHR miss cycles
system.cpu.icache.demand_mshr_miss_latency::total 130179781000                       # number of demand (read+write) MSHR miss cycles
system.cpu.icache.overall_mshr_miss_latency::.cpu.inst 130179781000                       # number of overall MSHR miss cycles
system.cpu.icache.overall_mshr_miss_latency::total 130179781000                       # number of overall MSHR miss cycles
system.cpu.icache.demand_mshr_miss_rate::.cpu.inst     0.083479                       # mshr miss rate for demand accesses
system.cpu.icache.demand_mshr_miss_rate::total     0.083479                       # mshr miss rate for demand accesses
system.cpu.icache.overall_mshr_miss_rate::.cpu.inst     0.083479                       # mshr miss rate for overall accesses
system.cpu.icache.overall_mshr_miss_rate::total     0.083479                       # mshr miss rate for overall accesses
system.cpu.icache.demand_avg_mshr_miss_latency::.cpu.inst 24800.603423                       # average overall mshr miss latency
system.cpu.icache.demand_avg_mshr_miss_latency::total 24800.603423                       # average overall mshr miss latency
system.cpu.icache.overall_avg_mshr_miss_latency::.cpu.inst 24800.603423                       # average overall mshr miss latency
system.cpu.icache.overall_avg_mshr_miss_latency::total 24800.603423                       # average overall mshr miss latency
system.cpu.icache.replacements                5249055                       # number of replacements
system.cpu.icache.ReadReq_hits::.cpu.inst     57630038                       # number of ReadReq hits
system.cpu.icache.ReadReq_hits::total        57630038                       # number of ReadReq hits
system.cpu.icache.ReadReq_misses::.cpu.inst      5249057                       # number of ReadReq misses
system.cpu.icache.ReadReq_misses::total       5249057                       # number of ReadReq misses
system.cpu.icache.ReadReq_miss_latency::.cpu.inst 140677895000                       # number of ReadReq miss cycles
system.cpu.icache.ReadReq_miss_latency::total 140677895000                       # number of ReadReq miss cycles
system.cpu.icache.ReadReq_accesses::.cpu.inst     62879095                       # number of ReadReq accesses(hits+misses)
system.cpu.icache.ReadReq_accesses::total     62879095                       # number of ReadReq accesses(hits+misses)
system.cpu.icache.ReadReq_miss_rate::.cpu.inst     0.083479                       # miss rate for ReadReq accesses
system.cpu.icache.ReadReq_miss_rate::total     0.083479                       # miss rate for ReadReq accesses
system.cpu.icache.ReadReq_avg_miss_latency::.cpu.inst 26800.603423                       # average ReadReq miss latency
system.cpu.icache.ReadReq_avg_miss_latency::total 26800.603423                       # average ReadReq miss latency
system.cpu.icache.ReadReq_mshr_misses::.cpu.inst      5249057                       # number of ReadReq MSHR misses
system.cpu.icache.ReadReq_mshr_misses::total      5249057                       # number of ReadReq MSHR misses
system.cpu.icache.ReadReq_mshr_miss_latency::.cpu.inst 130179781000                       # number of ReadReq MSHR miss cycles
system.cpu.icache.ReadReq_mshr_miss_latency::total 130179781000                       # number of ReadReq MSHR miss cycles
system.cpu.icache.ReadReq_mshr_miss_rate::.cpu.inst     0.083479                       # mshr miss rate for ReadReq accesses
system.cpu.icache.ReadReq_mshr_miss_rate::total     0.083479                       # mshr miss rate for ReadReq accesses
system.cpu.icache.ReadReq_avg_mshr_miss_latency::.cpu.inst 24800.603423                       # average ReadReq mshr miss latency
system.cpu.icache.ReadReq_avg_mshr_miss_latency::total 24800.603423                       # average ReadReq mshr miss latency
system.cpu.icache.power_state.pwrStateResidencyTicks::UNDEFINED 925457944000                       # Cumulative time (in ticks) in various power states
system.cpu.icache.tags.tagsinuse             1.999999                       # Cycle average of tags in use
system.cpu.icache.tags.total_refs            62879095                       # Total number of references to valid blocks.
system.cpu.icache.tags.sampled_refs           5249057                       # Sample count of references to valid blocks.
system.cpu.icache.tags.avg_refs             11.979122                       # Average number of references to valid blocks.
system.cpu.icache.tags.warmup_cycle             93000                       # Cycle when the warmup percentage was hit.
system.cpu.icache.tags.occ_blocks::.cpu.inst     1.999999                       # Average occupied blocks per requestor
system.cpu.icache.tags.occ_percent::.cpu.inst     1.000000                       # Average percentage of cache occupancy
system.cpu.icache.tags.occ_percent::total     1.000000                       # Average percentage of cache occupancy
system.cpu.icache.tags.occ_task_id_blocks::1024            2                       # Occupied blocks per task id
system.cpu.icache.tags.age_task_id_blocks_1024::0            2                       # Occupied blocks per task id
system.cpu.icache.tags.occ_task_id_percent::1024            1                       # Percentage of cache occupancy per task id
system.cpu.icache.tags.tag_accesses         131007247                       # Number of tag accesses
system.cpu.icache.tags.data_accesses        131007247                       # Number of data accesses
system.cpu.icache.tags.power_state.pwrStateResidencyTicks::UNDEFINED 925457944000                       # Cumulative time (in ticks) in various power states
system.cpu.interrupts.clk_domain.clock          16000                       # Clock period in ticks
system.cpu.itb.rdAccesses                           0                       # TLB accesses on read requests
system.cpu.itb.wrAccesses                    62879095                       # TLB accesses on write requests
system.cpu.itb.rdMisses                             0                       # TLB misses on read requests
system.cpu.itb.wrMisses                            53                       # TLB misses on write requests
system.cpu.itb.walker.power_state.pwrStateResidencyTicks::UNDEFINED 925457944000                       # Cumulative time (in ticks) in various power states
system.cpu.power_state.pwrStateResidencyTicks::ON 925457944000                       # Cumulative time (in ticks) in various power states
system.cpu.thread8224.numInsts                      0                       # Number of Instructions committed
system.cpu.thread8224.numOps                        0                       # Number of Ops committed
system.cpu.thread8224.numMemRefs                    0                       # Number of Memory References
system.l2bus.trans_dist::ReadResp            16691968                       # Transaction distribution
system.l2bus.trans_dist::WritebackDirty       8187233                       # Transaction distribution
system.l2bus.trans_dist::CleanEvict          10663222                       # Transaction distribution
system.l2bus.trans_dist::ReadExReq            1649580                       # Transaction distribution
system.l2bus.trans_dist::ReadExResp           1649580                       # Transaction distribution
system.l2bus.trans_dist::ReadSharedReq       16691968                       # Transaction distribution
system.l2bus.pkt_count_system.cpu.icache.mem_side_port::system.l2cache.cpu_side_port     15747169                       # Packet count per connected requestor and responder (bytes)
system.l2bus.pkt_count_system.cpu.dcache.mem_side_port::system.l2cache.cpu_side_port     39277471                       # Packet count per connected requestor and responder (bytes)
system.l2bus.pkt_count::total                55024640                       # Packet count per connected requestor and responder (bytes)
system.l2bus.pkt_size_system.cpu.icache.mem_side_port::system.l2cache.cpu_side_port    335939648                       # Cumulative packet size per connected requestor and responder (bytes)
system.l2bus.pkt_size_system.cpu.dcache.mem_side_port::system.l2cache.cpu_side_port   1361216320                       # Cumulative packet size per connected requestor and responder (bytes)
system.l2bus.pkt_size::total               1697155968                       # Cumulative packet size per connected requestor and responder (bytes)
system.l2bus.snoops                            508911                       # Total snoops (count)
system.l2bus.snoopTraffic                      686016                       # Total snoop traffic (bytes)
system.l2bus.snoop_fanout::samples           18850459                       # Request fanout histogram
system.l2bus.snoop_fanout::mean              0.001895                       # Request fanout histogram
system.l2bus.snoop_fanout::stdev             0.043493                       # Request fanout histogram
system.l2bus.snoop_fanout::underflows               0      0.00%      0.00% # Request fanout histogram
system.l2bus.snoop_fanout::0                 18814733     99.81%     99.81% # Request fanout histogram
system.l2bus.snoop_fanout::1                    35726      0.19%    100.00% # Request fanout histogram
system.l2bus.snoop_fanout::2                        0      0.00%    100.00% # Request fanout histogram
system.l2bus.snoop_fanout::overflows                0      0.00%    100.00% # Request fanout histogram
system.l2bus.snoop_fanout::min_value                0                       # Request fanout histogram
system.l2bus.snoop_fanout::max_value                1                       # Request fanout histogram
system.l2bus.snoop_fanout::total             18850459                       # Request fanout histogram
system.l2bus.power_state.pwrStateResidencyTicks::UNDEFINED 925457944000                       # Cumulative time (in ticks) in various power states
system.l2bus.reqLayer0.occupancy          53036120000                       # Layer occupancy (ticks)
system.l2bus.reqLayer0.utilization                5.7                       # Layer utilization (%)
system.l2bus.respLayer0.occupancy         15747171000                       # Layer occupancy (ticks)
system.l2bus.respLayer0.utilization               1.7                       # Layer utilization (%)
system.l2bus.respLayer1.occupancy         39277473000                       # Layer occupancy (ticks)
system.l2bus.respLayer1.utilization               4.2                       # Layer utilization (%)
system.l2cache.demand_hits::.cpu.inst         5187414                       # number of demand (read+write) hits
system.l2cache.demand_hits::.cpu.data        12662081                       # number of demand (read+write) hits
system.l2cache.demand_hits::total            17849495                       # number of demand (read+write) hits
system.l2cache.overall_hits::.cpu.inst        5187414                       # number of overall hits
system.l2cache.overall_hits::.cpu.data       12662081                       # number of overall hits
system.l2cache.overall_hits::total           17849495                       # number of overall hits
system.l2cache.demand_misses::.cpu.inst         61643                       # number of demand (read+write) misses
system.l2cache.demand_misses::.cpu.data        430410                       # number of demand (read+write) misses
system.l2cache.demand_misses::total            492053                       # number of demand (read+write) misses
system.l2cache.overall_misses::.cpu.inst        61643                       # number of overall misses
system.l2cache.overall_misses::.cpu.data       430410                       # number of overall misses
system.l2cache.overall_misses::total           492053                       # number of overall misses
system.l2cache.demand_miss_latency::.cpu.inst   5495627000                       # number of demand (read+write) miss cycles
system.l2cache.demand_miss_latency::.cpu.data  35713856000                       # number of demand (read+write) miss cycles
system.l2cache.demand_miss_latency::total  41209483000                       # number of demand (read+write) miss cycles
system.l2cache.overall_miss_latency::.cpu.inst   5495627000                       # number of overall miss cycles
system.l2cache.overall_miss_latency::.cpu.data  35713856000                       # number of overall miss cycles
system.l2cache.overall_miss_latency::total  41209483000                       # number of overall miss cycles
system.l2cache.demand_accesses::.cpu.inst      5249057                       # number of demand (read+write) accesses
system.l2cache.demand_accesses::.cpu.data     13092491                       # number of demand (read+write) accesses
system.l2cache.demand_accesses::total        18341548                       # number of demand (read+write) accesses
system.l2cache.overall_accesses::.cpu.inst      5249057                       # number of overall (read+write) accesses
system.l2cache.overall_accesses::.cpu.data     13092491                       # number of overall (read+write) accesses
system.l2cache.overall_accesses::total       18341548                       # number of overall (read+write) accesses
system.l2cache.demand_miss_rate::.cpu.inst     0.011744                       # miss rate for demand accesses
system.l2cache.demand_miss_rate::.cpu.data     0.032875                       # miss rate for demand accesses
system.l2cache.demand_miss_rate::total       0.026827                       # miss rate for demand accesses
system.l2cache.overall_miss_rate::.cpu.inst     0.011744                       # miss rate for overall accesses
system.l2cache.overall_miss_rate::.cpu.data     0.032875                       # miss rate for overall accesses
system.l2cache.overall_miss_rate::total      0.026827                       # miss rate for overall accesses
system.l2cache.demand_avg_miss_latency::.cpu.inst 89152.490956                       # average overall miss latency
system.l2cache.demand_avg_miss_latency::.cpu.data 82976.362073                       # average overall miss latency
system.l2cache.demand_avg_miss_latency::total 83750.089929                       # average overall miss latency
system.l2cache.overall_avg_miss_latency::.cpu.inst 89152.490956                       # average overall miss latency
system.l2cache.overall_avg_miss_latency::.cpu.data 82976.362073                       # average overall miss latency
system.l2cache.overall_avg_miss_latency::total 83750.089929                       # average overall miss latency
system.l2cache.blocked_cycles::no_mshrs             0                       # number of cycles access was blocked
system.l2cache.blocked_cycles::no_targets            0                       # number of cycles access was blocked
system.l2cache.blocked::no_mshrs                    0                       # number of cycles access was blocked
system.l2cache.blocked::no_targets                  0                       # number of cycles access was blocked
system.l2cache.avg_blocked_cycles::no_mshrs          nan                       # average number of cycles each access was blocked
system.l2cache.avg_blocked_cycles::no_targets          nan                       # average number of cycles each access was blocked
system.l2cache.writebacks::.writebacks          10719                       # number of writebacks
system.l2cache.writebacks::total                10719                       # number of writebacks
system.l2cache.demand_mshr_misses::.cpu.inst        61643                       # number of demand (read+write) MSHR misses
system.l2cache.demand_mshr_misses::.cpu.data       430410                       # number of demand (read+write) MSHR misses
system.l2cache.demand_mshr_misses::total       492053                       # number of demand (read+write) MSHR misses
system.l2cache.overall_mshr_misses::.cpu.inst        61643                       # number of overall MSHR misses
system.l2cache.overall_mshr_misses::.cpu.data       430410                       # number of overall MSHR misses
system.l2cache.overall_mshr_misses::total       492053                       # number of overall MSHR misses
system.l2cache.demand_mshr_miss_latency::.cpu.inst   4262767000                       # number of demand (read+write) MSHR miss cycles
system.l2cache.demand_mshr_miss_latency::.cpu.data  27105656000                       # number of demand (read+write) MSHR miss cycles
system.l2cache.demand_mshr_miss_latency::total  31368423000                       # number of demand (read+write) MSHR miss cycles
system.l2cache.overall_mshr_miss_latency::.cpu.inst   4262767000                       # number of overall MSHR miss cycles
system.l2cache.overall_mshr_miss_latency::.cpu.data  27105656000                       # number of overall MSHR miss cycles
system.l2cache.overall_mshr_miss_latency::total  31368423000                       # number of overall MSHR miss cycles
system.l2cache.demand_mshr_miss_rate::.cpu.inst     0.011744                       # mshr miss rate for demand accesses
system.l2cache.demand_mshr_miss_rate::.cpu.data     0.032875                       # mshr miss rate for demand accesses
system.l2cache.demand_mshr_miss_rate::total     0.026827                       # mshr miss rate for demand accesses
system.l2cache.overall_mshr_miss_rate::.cpu.inst     0.011744                       # mshr miss rate for overall accesses
system.l2cache.overall_mshr_miss_rate::.cpu.data     0.032875                       # mshr miss rate for overall accesses
system.l2cache.overall_mshr_miss_rate::total     0.026827                       # mshr miss rate for overall accesses
system.l2cache.demand_avg_mshr_miss_latency::.cpu.inst 69152.490956                       # average overall mshr miss latency
system.l2cache.demand_avg_mshr_miss_latency::.cpu.data 62976.362073                       # average overall mshr miss latency
system.l2cache.demand_avg_mshr_miss_latency::total 63750.089929                       # average overall mshr miss latency
system.l2cache.overall_avg_mshr_miss_latency::.cpu.inst 69152.490956                       # average overall mshr miss latency
system.l2cache.overall_avg_mshr_miss_latency::.cpu.data 62976.362073                       # average overall mshr miss latency
system.l2cache.overall_avg_mshr_miss_latency::total 63750.089929                       # average overall mshr miss latency
system.l2cache.replacements                    508911                       # number of replacements
system.l2cache.WritebackDirty_hits::.writebacks      8176514                       # number of WritebackDirty hits
system.l2cache.WritebackDirty_hits::total      8176514                       # number of WritebackDirty hits
system.l2cache.WritebackDirty_accesses::.writebacks      8176514                       # number of WritebackDirty accesses(hits+misses)
system.l2cache.WritebackDirty_accesses::total      8176514                       # number of WritebackDirty accesses(hits+misses)
system.l2cache.CleanEvict_mshr_misses::.writebacks        18859                       # number of CleanEvict MSHR misses
system.l2cache.CleanEvict_mshr_misses::total        18859                       # number of CleanEvict MSHR misses
system.l2cache.CleanEvict_mshr_miss_rate::.writebacks          inf                       # mshr miss rate for CleanEvict accesses
system.l2cache.CleanEvict_mshr_miss_rate::total          inf                       # mshr miss rate for CleanEvict accesses
system.l2cache.ReadExReq_hits::.cpu.data      1640108                       # number of ReadExReq hits
system.l2cache.ReadExReq_hits::total          1640108                       # number of ReadExReq hits
system.l2cache.ReadExReq_misses::.cpu.data         9472                       # number of ReadExReq misses
system.l2cache.ReadExReq_misses::total           9472                       # number of ReadExReq misses
system.l2cache.ReadExReq_miss_latency::.cpu.data    593524000                       # number of ReadExReq miss cycles
system.l2cache.ReadExReq_miss_latency::total    593524000                       # number of ReadExReq miss cycles
system.l2cache.ReadExReq_accesses::.cpu.data      1649580                       # number of ReadExReq accesses(hits+misses)
system.l2cache.ReadExReq_accesses::total      1649580                       # number of ReadExReq accesses(hits+misses)
system.l2cache.ReadExReq_miss_rate::.cpu.data     0.005742                       # miss rate for ReadExReq accesses
system.l2cache.ReadExReq_miss_rate::total     0.005742                       # miss rate for ReadExReq accesses
system.l2cache.ReadExReq_avg_miss_latency::.cpu.data 62660.895270                       # average ReadExReq miss latency
system.l2cache.ReadExReq_avg_miss_latency::total 62660.895270                       # average ReadExReq miss latency
system.l2cache.ReadExReq_mshr_misses::.cpu.data         9472                       # number of ReadExReq MSHR misses
system.l2cache.ReadExReq_mshr_misses::total         9472                       # number of ReadExReq MSHR misses
system.l2cache.ReadExReq_mshr_miss_latency::.cpu.data    404084000                       # number of ReadExReq MSHR miss cycles
system.l2cache.ReadExReq_mshr_miss_latency::total    404084000                       # number of ReadExReq MSHR miss cycles
system.l2cache.ReadExReq_mshr_miss_rate::.cpu.data     0.005742                       # mshr miss rate for ReadExReq accesses
system.l2cache.ReadExReq_mshr_miss_rate::total     0.005742                       # mshr miss rate for ReadExReq accesses
system.l2cache.ReadExReq_avg_mshr_miss_latency::.cpu.data 42660.895270                       # average ReadExReq mshr miss latency
system.l2cache.ReadExReq_avg_mshr_miss_latency::total 42660.895270                       # average ReadExReq mshr miss latency
system.l2cache.ReadSharedReq_hits::.cpu.inst      5187414                       # number of ReadSharedReq hits
system.l2cache.ReadSharedReq_hits::.cpu.data     11021973                       # number of ReadSharedReq hits
system.l2cache.ReadSharedReq_hits::total     16209387                       # number of ReadSharedReq hits
system.l2cache.ReadSharedReq_misses::.cpu.inst        61643                       # number of ReadSharedReq misses
system.l2cache.ReadSharedReq_misses::.cpu.data       420938                       # number of ReadSharedReq misses
system.l2cache.ReadSharedReq_misses::total       482581                       # number of ReadSharedReq misses
system.l2cache.ReadSharedReq_miss_latency::.cpu.inst   5495627000                       # number of ReadSharedReq miss cycles
system.l2cache.ReadSharedReq_miss_latency::.cpu.data  35120332000                       # number of ReadSharedReq miss cycles
system.l2cache.ReadSharedReq_miss_latency::total  40615959000                       # number of ReadSharedReq miss cycles
system.l2cache.ReadSharedReq_accesses::.cpu.inst      5249057                       # number of ReadSharedReq accesses(hits+misses)
system.l2cache.ReadSharedReq_accesses::.cpu.data     11442911                       # number of ReadSharedReq accesses(hits+misses)
system.l2cache.ReadSharedReq_accesses::total     16691968                       # number of ReadSharedReq accesses(hits+misses)
system.l2cache.ReadSharedReq_miss_rate::.cpu.inst     0.011744                       # miss rate for ReadSharedReq accesses
system.l2cache.ReadSharedReq_miss_rate::.cpu.data     0.036786                       # miss rate for ReadSharedReq accesses
system.l2cache.ReadSharedReq_miss_rate::total     0.028911                       # miss rate for ReadSharedReq accesses
system.l2cache.ReadSharedReq_avg_miss_latency::.cpu.inst 89152.490956                       # average ReadSharedReq miss latency
system.l2cache.ReadSharedReq_avg_miss_latency::.cpu.data 83433.503271                       # average ReadSharedReq miss latency
system.l2cache.ReadSharedReq_avg_miss_latency::total 84164.024278                       # average ReadSharedReq miss latency
system.l2cache.ReadSharedReq_mshr_misses::.cpu.inst        61643                       # number of ReadSharedReq MSHR misses
system.l2cache.ReadSharedReq_mshr_misses::.cpu.data       420938                       # number of ReadSharedReq MSHR misses
system.l2cache.ReadSharedReq_mshr_misses::total       482581                       # number of ReadSharedReq MSHR misses
system.l2cache.ReadSharedReq_mshr_miss_latency::.cpu.inst   4262767000                       # number of ReadSharedReq MSHR miss cycles
system.l2cache.ReadSharedReq_mshr_miss_latency::.cpu.data  26701572000                       # number of ReadSharedReq MSHR miss cycles
system.l2cache.ReadSharedReq_mshr_miss_latency::total  30964339000                       # number of ReadSharedReq MSHR miss cycles
system.l2cache.ReadSharedReq_mshr_miss_rate::.cpu.inst     0.011744                       # mshr miss rate for ReadSharedReq accesses
system.l2cache.ReadSharedReq_mshr_miss_rate::.cpu.data     0.036786                       # mshr miss rate for ReadSharedReq accesses
system.l2cache.ReadSharedReq_mshr_miss_rate::total     0.028911                       # mshr miss rate for ReadSharedReq accesses
system.l2cache.ReadSharedReq_avg_mshr_miss_latency::.cpu.inst 69152.490956                       # average ReadSharedReq mshr miss latency
system.l2cache.ReadSharedReq_avg_mshr_miss_latency::.cpu.data 63433.503271                       # average ReadSharedReq mshr miss latency
system.l2cache.ReadSharedReq_avg_mshr_miss_latency::total 64164.024278                       # average ReadSharedReq mshr miss latency
system.l2cache.power_state.pwrStateResidencyTicks::UNDEFINED 925457944000                       # Cumulative time (in ticks) in various power states
system.l2cache.tags.tagsinuse                7.999996                       # Cycle average of tags in use
system.l2cache.tags.total_refs               36664233                       # Total number of references to valid blocks.
system.l2cache.tags.sampled_refs               508919                       # Sample count of references to valid blocks.
system.l2cache.tags.avg_refs                72.043357                       # Average number of references to valid blocks.
system.l2cache.tags.warmup_cycle                72000                       # Cycle when the warmup percentage was hit.
system.l2cache.tags.occ_blocks::.writebacks     1.995519                       # Average occupied blocks per requestor
system.l2cache.tags.occ_blocks::.cpu.inst     3.014336                       # Average occupied blocks per requestor
system.l2cache.tags.occ_blocks::.cpu.data     2.990141                       # Average occupied blocks per requestor
system.l2cache.tags.occ_percent::.writebacks     0.249440                       # Average percentage of cache occupancy
system.l2cache.tags.occ_percent::.cpu.inst     0.376792                       # Average percentage of cache occupancy
system.l2cache.tags.occ_percent::.cpu.data     0.373768                       # Average percentage of cache occupancy
system.l2cache.tags.occ_percent::total       1.000000                       # Average percentage of cache occupancy
system.l2cache.tags.occ_task_id_blocks::1024            8                       # Occupied blocks per task id
system.l2cache.tags.age_task_id_blocks_1024::0            8                       # Occupied blocks per task id
system.l2cache.tags.occ_task_id_percent::1024            1                       # Percentage of cache occupancy per task id
system.l2cache.tags.tag_accesses            293973655                       # Number of tag accesses
system.l2cache.tags.data_accesses           293973655                       # Number of data accesses
system.l2cache.tags.power_state.pwrStateResidencyTicks::UNDEFINED 925457944000                       # Cumulative time (in ticks) in various power states
system.mem_ctrl.avgPriority_.writebacks::samples      1192.00                       # Average QoS priority value for accepted requests
system.mem_ctrl.avgPriority_.cpu.inst::samples     61643.00                       # Average QoS priority value for accepted requests
system.mem_ctrl.avgPriority_.cpu.data::samples    336558.00                       # Average QoS priority value for accepted requests
system.mem_ctrl.priorityMinLatency       0.000000017492                       # per QoS priority minimum request to response latency (s)
system.mem_ctrl.priorityMaxLatency       1.846470731492                       # per QoS priority maximum request to response latency (s)
system.mem_ctrl.numReadWriteTurnArounds            65                       # Number of turnarounds from READ to WRITE
system.mem_ctrl.numWriteReadTurnArounds            65                       # Number of turnarounds from WRITE to READ
system.mem_ctrl.numStayReadState              1198330                       # Number of times bus staying in READ state
system.mem_ctrl.numStayWriteState                1071                       # Number of times bus staying in WRITE state
system.mem_ctrl.readReqs                       484384                       # Number of read requests accepted
system.mem_ctrl.writeReqs                        3389                       # Number of write requests accepted
system.mem_ctrl.readBursts                     484384                       # Number of controller read bursts, including those serviced by the write queue
system.mem_ctrl.writeBursts                      3389                       # Number of controller write bursts, including those merged in the write queue
system.mem_ctrl.servicedByWrQ                   86183                       # Number of controller read bursts serviced by the write queue
system.mem_ctrl.mergedWrBursts                   2197                       # Number of controller write bursts merged with an existing one
system.mem_ctrl.neitherReadNorWriteReqs             0                       # Number of requests that are neither read nor write
system.mem_ctrl.avgRdQLen                        1.00                       # Average read queue length when enqueuing
system.mem_ctrl.avgWrQLen                       61.98                       # Average write queue length when enqueuing
system.mem_ctrl.numRdRetry                          0                       # Number of times read queue was full causing retry
system.mem_ctrl.numWrRetry                          0                       # Number of times write queue was full causing retry
system.mem_ctrl.readPktSize::0                      0                       # Read request sizes (log2)
system.mem_ctrl.readPktSize::1                      0                       # Read request sizes (log2)
system.mem_ctrl.readPktSize::2                      0                       # Read request sizes (log2)
system.mem_ctrl.readPktSize::3                      0                       # Read request sizes (log2)
system.mem_ctrl.readPktSize::4                      0                       # Read request sizes (log2)
system.mem_ctrl.readPktSize::5                      0                       # Read request sizes (log2)
system.mem_ctrl.readPktSize::6                 484384                       # Read request sizes (log2)
system.mem_ctrl.writePktSize::0                     0                       # Write request sizes (log2)
system.mem_ctrl.writePktSize::1                     0                       # Write request sizes (log2)
system.mem_ctrl.writePktSize::2                     0                       # Write request sizes (log2)
system.mem_ctrl.writePktSize::3                     0                       # Write request sizes (log2)
system.mem_ctrl.writePktSize::4                     0                       # Write request sizes (log2)
system.mem_ctrl.writePktSize::5                     0                       # Write request sizes (log2)
system.mem_ctrl.writePktSize::6                  3389                       # Write request sizes (log2)
system.mem_ctrl.rdQLenPdf::0                   398197                       # What read queue length does an incoming req see
system.mem_ctrl.rdQLenPdf::1                        4                       # What read queue length does an incoming req see
system.mem_ctrl.rdQLenPdf::2                        0                       # What read queue length does an incoming req see
system.mem_ctrl.rdQLenPdf::3                        0                       # What read queue length does an incoming req see
system.mem_ctrl.rdQLenPdf::4                        0                       # What read queue length does an incoming req see
system.mem_ctrl.rdQLenPdf::5                        0                       # What read queue length does an incoming req see
system.mem_ctrl.rdQLenPdf::6                        0                       # What read queue length does an incoming req see
system.mem_ctrl.rdQLenPdf::7                        0                       # What read queue length does an incoming req see
system.mem_ctrl.rdQLenPdf::8                        0                       # What read queue length does an incoming req see
system.mem_ctrl.rdQLenPdf::9                        0                       # What read queue length does an incoming req see
system.mem_ctrl.rdQLenPdf::10                       0                       # What read queue length does an incoming req see
system.mem_ctrl.rdQLenPdf::11                       0                       # What read queue length does an incoming req see
system.mem_ctrl.rdQLenPdf::12                       0                       # What read queue length does an incoming req see
system.mem_ctrl.rdQLenPdf::13                       0                       # What read queue length does an incoming req see
system.mem_ctrl.rdQLenPdf::14                       0                       # What read queue length does an incoming req see
system.mem_ctrl.rdQLenPdf::15                       0                       # What read queue length does an incoming req see
system.mem_ctrl.rdQLenPdf::16                       0                       # What read queue length does an incoming req see
system.mem_ctrl.rdQLenPdf::17                       0                       # What read queue length does an incoming req see
system.mem_ctrl.rdQLenPdf::18                       0                       # What read queue length does an incoming req see
system.mem_ctrl.rdQLenPdf::19                       0                       # What read queue length does an incoming req see
system.mem_ctrl.rdQLenPdf::20                       0                       # What read queue length does an incoming req see
system.mem_ctrl.rdQLenPdf::21                       0                       # What read queue length does an incoming req see
system.mem_ctrl.rdQLenPdf::22                       0                       # What read queue length does an incoming req see
system.mem_ctrl.rdQLenPdf::23                       0                       # What read queue length does an incoming req see
system.mem_ctrl.rdQLenPdf::24                       0                       # What read queue length does an incoming req see
system.mem_ctrl.rdQLenPdf::25                       0                       # What read queue length does an incoming req see
system.mem_ctrl.rdQLenPdf::26                       0                       # What read queue length does an incoming req see
system.mem_ctrl.rdQLenPdf::27                       0                       # What read queue length does an incoming req see
system.mem_ctrl.rdQLenPdf::28                       0                       # What read queue length does an incoming req see
system.mem_ctrl.rdQLenPdf::29                       0                       # What read queue length does an incoming req see
system.mem_ctrl.rdQLenPdf::30                       0                       # What read queue length does an incoming req see
system.mem_ctrl.rdQLenPdf::31                       0                       # What read queue length does an incoming req see
system.mem_ctrl.rdQLenPdf::32                       0                       # What read queue length does an incoming req see
system.mem_ctrl.rdQLenPdf::33                       0                       # What read queue length does an incoming req see
system.mem_ctrl.rdQLenPdf::34                       0                       # What read queue length does an incoming req see
system.mem_ctrl.rdQLenPdf::35                       0                       # What read queue length does an incoming req see
system.mem_ctrl.rdQLenPdf::36                       0                       # What read queue length does an incoming req see
system.mem_ctrl.rdQLenPdf::37                       0                       # What read queue length does an incoming req see
system.mem_ctrl.rdQLenPdf::38                       0                       # What read queue length does an incoming req see
system.mem_ctrl.rdQLenPdf::39                       0                       # What read queue length does an incoming req see
system.mem_ctrl.rdQLenPdf::40                       0                       # What read queue length does an incoming req see
system.mem_ctrl.rdQLenPdf::41                       0                       # What read queue length does an incoming req see
system.mem_ctrl.rdQLenPdf::42                       0                       # What read queue length does an incoming req see
system.mem_ctrl.rdQLenPdf::43                       0                       # What read queue length does an incoming req see
system.mem_ctrl.rdQLenPdf::44                       0                       # What read queue length does an incoming req see
system.mem_ctrl.rdQLenPdf::45                       0                       # What read queue length does an incoming req see
system.mem_ctrl.rdQLenPdf::46                       0                       # What read queue length does an incoming req see
system.mem_ctrl.rdQLenPdf::47                       0                       # What read queue length does an incoming req see
system.mem_ctrl.rdQLenPdf::48                       0                       # What read queue length does an incoming req see
system.mem_ctrl.rdQLenPdf::49                       0                       # What read queue length does an incoming req see
system.mem_ctrl.rdQLenPdf::50                       0                       # What read queue length does an incoming req see
system.mem_ctrl.rdQLenPdf::51                       0                       # What read queue length does an incoming req see
system.mem_ctrl.rdQLenPdf::52                       0                       # What read queue length does an incoming req see
system.mem_ctrl.rdQLenPdf::53                       0                       # What read queue length does an incoming req see
system.mem_ctrl.rdQLenPdf::54                       0                       # What read queue length does an incoming req see
system.mem_ctrl.rdQLenPdf::55                       0                       # What read queue length does an incoming req see
system.mem_ctrl.rdQLenPdf::56                       0                       # What read queue length does an incoming req see
system.mem_ctrl.rdQLenPdf::57                       0                       # What read queue length does an incoming req see
system.mem_ctrl.rdQLenPdf::58                       0                       # What read queue length does an incoming req see
system.mem_ctrl.rdQLenPdf::59                       0                       # What read queue length does an incoming req see
system.mem_ctrl.rdQLenPdf::60                       0                       # What read queue length does an incoming req see
system.mem_ctrl.rdQLenPdf::61                       0                       # What read queue length does an incoming req see
system.mem_ctrl.rdQLenPdf::62                       0                       # What read queue length does an incoming req see
system.mem_ctrl.rdQLenPdf::63                       0                       # What read queue length does an incoming req see
system.mem_ctrl.wrQLenPdf::0                        1                       # What write queue length does an incoming req see
system.mem_ctrl.wrQLenPdf::1                        1                       # What write queue length does an incoming req see
system.mem_ctrl.wrQLenPdf::2                        1                       # What write queue length does an incoming req see
system.mem_ctrl.wrQLenPdf::3                        1                       # What write queue length does an incoming req see
system.mem_ctrl.wrQLenPdf::4                        1                       # What write queue length does an incoming req see
system.mem_ctrl.wrQLenPdf::5                        1                       # What write queue length does an incoming req see
system.mem_ctrl.wrQLenPdf::6                        1                       # What write queue length does an incoming req see
system.mem_ctrl.wrQLenPdf::7                        1                       # What write queue length does an incoming req see
system.mem_ctrl.wrQLenPdf::8                        1                       # What write queue length does an incoming req see
system.mem_ctrl.wrQLenPdf::9                        1                       # What write queue length does an incoming req see
system.mem_ctrl.wrQLenPdf::10                       1                       # What write queue length does an incoming req see
system.mem_ctrl.wrQLenPdf::11                       1                       # What write queue length does an incoming req see
system.mem_ctrl.wrQLenPdf::12                       1                       # What write queue length does an incoming req see
system.mem_ctrl.wrQLenPdf::13                       1                       # What write queue length does an incoming req see
system.mem_ctrl.wrQLenPdf::14                       1                       # What write queue length does an incoming req see
system.mem_ctrl.wrQLenPdf::15                       1                       # What write queue length does an incoming req see
system.mem_ctrl.wrQLenPdf::16                       1                       # What write queue length does an incoming req see
system.mem_ctrl.wrQLenPdf::17                       1                       # What write queue length does an incoming req see
system.mem_ctrl.wrQLenPdf::18                       1                       # What write queue length does an incoming req see
system.mem_ctrl.wrQLenPdf::19                       1                       # What write queue length does an incoming req see
system.mem_ctrl.wrQLenPdf::20                       1                       # What write queue length does an incoming req see
system.mem_ctrl.wrQLenPdf::21                       1                       # What write queue length does an incoming req see
system.mem_ctrl.wrQLenPdf::22                       1                       # What write queue length does an incoming req see
system.mem_ctrl.wrQLenPdf::23                       1                       # What write queue length does an incoming req see
system.mem_ctrl.wrQLenPdf::24                       1                       # What write queue length does an incoming req see
system.mem_ctrl.wrQLenPdf::25                       1                       # What write queue length does an incoming req see
system.mem_ctrl.wrQLenPdf::26                       1                       # What write queue length does an incoming req see
system.mem_ctrl.wrQLenPdf::27                       1                       # What write queue length does an incoming req see
system.mem_ctrl.wrQLenPdf::28                       1                       # What write queue length does an incoming req see
system.mem_ctrl.wrQLenPdf::29                       1                       # What write queue length does an incoming req see
system.mem_ctrl.wrQLenPdf::30                       1                       # What write queue length does an incoming req see
system.mem_ctrl.wrQLenPdf::31                       1                       # What write queue length does an incoming req see
system.mem_ctrl.wrQLenPdf::32                       1                       # What write queue length does an incoming req see
system.mem_ctrl.wrQLenPdf::33                       1                       # What write queue length does an incoming req see
system.mem_ctrl.wrQLenPdf::34                       1                       # What write queue length does an incoming req see
system.mem_ctrl.wrQLenPdf::35                       1                       # What write queue length does an incoming req see
system.mem_ctrl.wrQLenPdf::36                       1                       # What write queue length does an incoming req see
system.mem_ctrl.wrQLenPdf::37                       1                       # What write queue length does an incoming req see
system.mem_ctrl.wrQLenPdf::38                       1                       # What write queue length does an incoming req see
system.mem_ctrl.wrQLenPdf::39                       1                       # What write queue length does an incoming req see
system.mem_ctrl.wrQLenPdf::40                       1                       # What write queue length does an incoming req see
system.mem_ctrl.wrQLenPdf::41                       1                       # What write queue length does an incoming req see
system.mem_ctrl.wrQLenPdf::42                       1                       # What write queue length does an incoming req see
system.mem_ctrl.wrQLenPdf::43                       1                       # What write queue length does an incoming req see
system.mem_ctrl.wrQLenPdf::44                       1                       # What write queue length does an incoming req see
system.mem_ctrl.wrQLenPdf::45                       1                       # What write queue length does an incoming req see
system.mem_ctrl.wrQLenPdf::46                       1                       # What write queue length does an incoming req see
system.mem_ctrl.wrQLenPdf::47                      49                       # What write queue length does an incoming req see
system.mem_ctrl.wrQLenPdf::48                      49                       # What write queue length does an incoming req see
system.mem_ctrl.wrQLenPdf::49                      66                       # What write queue length does an incoming req see
system.mem_ctrl.wrQLenPdf::50                      66                       # What write queue length does an incoming req see
system.mem_ctrl.wrQLenPdf::51                      66                       # What write queue length does an incoming req see
system.mem_ctrl.wrQLenPdf::52                      66                       # What write queue length does an incoming req see
system.mem_ctrl.wrQLenPdf::53                      66                       # What write queue length does an incoming req see
system.mem_ctrl.wrQLenPdf::54                      66                       # What write queue length does an incoming req see
system.mem_ctrl.wrQLenPdf::55                      66                       # What write queue length does an incoming req see
system.mem_ctrl.wrQLenPdf::56                      65                       # What write queue length does an incoming req see
system.mem_ctrl.wrQLenPdf::57                      65                       # What write queue length does an incoming req see
system.mem_ctrl.wrQLenPdf::58                      65                       # What write queue length does an incoming req see
system.mem_ctrl.wrQLenPdf::59                      65                       # What write queue length does an incoming req see
system.mem_ctrl.wrQLenPdf::60                      65                       # What write queue length does an incoming req see
system.mem_ctrl.wrQLenPdf::61                      65                       # What write queue length does an incoming req see
system.mem_ctrl.wrQLenPdf::62                      65                       # What write queue length does an incoming req see
system.mem_ctrl.wrQLenPdf::63                      65                       # What write queue length does an incoming req see
system.mem_ctrl.wrQLenPdf::64                      65                       # What write queue length does an incoming req see
system.mem_ctrl.wrQLenPdf::65                       0                       # What write queue length does an incoming req see
system.mem_ctrl.wrQLenPdf::66                       0                       # What write queue length does an incoming req see
system.mem_ctrl.wrQLenPdf::67                       0                       # What write queue length does an incoming req see
system.mem_ctrl.wrQLenPdf::68                       0                       # What write queue length does an incoming req see
system.mem_ctrl.wrQLenPdf::69                       0                       # What write queue length does an incoming req see
system.mem_ctrl.wrQLenPdf::70                       0                       # What write queue length does an incoming req see
system.mem_ctrl.wrQLenPdf::71                       0                       # What write queue length does an incoming req see
system.mem_ctrl.wrQLenPdf::72                       0                       # What write queue length does an incoming req see
system.mem_ctrl.wrQLenPdf::73                       0                       # What write queue length does an incoming req see
system.mem_ctrl.wrQLenPdf::74                       0                       # What write queue length does an incoming req see
system.mem_ctrl.wrQLenPdf::75                       0                       # What write queue length does an incoming req see
system.mem_ctrl.wrQLenPdf::76                       0                       # What write queue length does an incoming req see
system.mem_ctrl.wrQLenPdf::77                       0                       # What write queue length does an incoming req see
system.mem_ctrl.wrQLenPdf::78                       0                       # What write queue length does an incoming req see
system.mem_ctrl.wrQLenPdf::79                       0                       # What write queue length does an incoming req see
system.mem_ctrl.wrQLenPdf::80                       0                       # What write queue length does an incoming req see
[...]
system.nvm_ctrl.wrQLenPdf::87                       0                       # What write queue length does an incoming req see
system.nvm_ctrl.wrQLenPdf::88                       0                       # What write queue length does an incoming req see
system.nvm_ctrl.wrQLenPdf::89                       0                       # What write queue length does an incoming req see
system.nvm_ctrl.wrQLenPdf::90                       0                       # What write queue length does an incoming req see
system.nvm_ctrl.wrQLenPdf::91                       0                       # What write queue length does an incoming req see
system.nvm_ctrl.wrQLenPdf::92                       0                       # What write queue length does an incoming req see
system.nvm_ctrl.wrQLenPdf::93                       0                       # What write queue length does an incoming req see
system.nvm_ctrl.wrQLenPdf::94                       0                       # What write queue length does an incoming req see
system.nvm_ctrl.wrQLenPdf::95                       0                       # What write queue length does an incoming req see
system.nvm_ctrl.wrQLenPdf::96                       0                       # What write queue length does an incoming req see
system.nvm_ctrl.wrQLenPdf::97                       0                       # What write queue length does an incoming req see
system.nvm_ctrl.wrQLenPdf::98                       0                       # What write queue length does an incoming req see
system.nvm_ctrl.wrQLenPdf::99                       0                       # What write queue length does an incoming req see
system.nvm_ctrl.wrQLenPdf::100                      0                       # What write queue length does an incoming req see
system.nvm_ctrl.wrQLenPdf::101                      0                       # What write queue length does an incoming req see
system.nvm_ctrl.wrQLenPdf::102                      0                       # What write queue length does an incoming req see
system.nvm_ctrl.wrQLenPdf::103                      0                       # What write queue length does an incoming req see
system.nvm_ctrl.wrQLenPdf::104                      0                       # What write queue length does an incoming req see
system.nvm_ctrl.wrQLenPdf::105                      0                       # What write queue length does an incoming req see
system.nvm_ctrl.wrQLenPdf::106                      0                       # What write queue length does an incoming req see
system.nvm_ctrl.wrQLenPdf::107                      0                       # What write queue length does an incoming req see
system.nvm_ctrl.wrQLenPdf::108                      0                       # What write queue length does an incoming req see
system.nvm_ctrl.wrQLenPdf::109                      0                       # What write queue length does an incoming req see
system.nvm_ctrl.wrQLenPdf::110                      0                       # What write queue length does an incoming req see
system.nvm_ctrl.wrQLenPdf::111                      0                       # What write queue length does an incoming req see
system.nvm_ctrl.wrQLenPdf::112                      0                       # What write queue length does an incoming req see
system.nvm_ctrl.wrQLenPdf::113                      0                       # What write queue length does an incoming req see
system.nvm_ctrl.wrQLenPdf::114                      0                       # What write queue length does an incoming req see
system.nvm_ctrl.wrQLenPdf::115                      0                       # What write queue length does an incoming req see
system.nvm_ctrl.wrQLenPdf::116                      0                       # What write queue length does an incoming req see
system.nvm_ctrl.wrQLenPdf::117                      0                       # What write queue length does an incoming req see
system.nvm_ctrl.wrQLenPdf::118                      0                       # What write queue length does an incoming req see
system.nvm_ctrl.wrQLenPdf::119                      0                       # What write queue length does an incoming req see
system.nvm_ctrl.wrQLenPdf::120                      0                       # What write queue length does an incoming req see
system.nvm_ctrl.wrQLenPdf::121                      0                       # What write queue length does an incoming req see
system.nvm_ctrl.wrQLenPdf::122                      0                       # What write queue length does an incoming req see
system.nvm_ctrl.wrQLenPdf::123                      0                       # What write queue length does an incoming req see
system.nvm_ctrl.wrQLenPdf::124                      0                       # What write queue length does an incoming req see
system.nvm_ctrl.wrQLenPdf::125                      0                       # What write queue length does an incoming req see
system.nvm_ctrl.wrQLenPdf::126                      0                       # What write queue length does an incoming req see
system.nvm_ctrl.wrQLenPdf::127                      0                       # What write queue length does an incoming req see
system.nvm_ctrl.rdPerTurnAround::samples            6                       # Reads before turning the bus around for writes
system.nvm_ctrl.rdPerTurnAround::mean       64.833333                       # Reads before turning the bus around for writes
system.nvm_ctrl.rdPerTurnAround::gmean      28.752280                       # Reads before turning the bus around for writes
system.nvm_ctrl.rdPerTurnAround::stdev     114.717770                       # Reads before turning the bus around for writes
system.nvm_ctrl.rdPerTurnAround::16-23              5     83.33%     83.33% # Reads before turning the bus around for writes
system.nvm_ctrl.rdPerTurnAround::296-303            1     16.67%    100.00% # Reads before turning the bus around for writes
system.nvm_ctrl.rdPerTurnAround::total              6                       # Reads before turning the bus around for writes
system.nvm_ctrl.wrPerTurnAround::samples            6                       # Writes before turning the bus around for reads
system.nvm_ctrl.wrPerTurnAround::mean              18                       # Writes before turning the bus around for reads
system.nvm_ctrl.wrPerTurnAround::gmean      18.000000                       # Writes before turning the bus around for reads
system.nvm_ctrl.wrPerTurnAround::18                 6    100.00%    100.00% # Writes before turning the bus around for reads
system.nvm_ctrl.wrPerTurnAround::total              6                       # Writes before turning the bus around for reads
system.nvm_ctrl.bytesReadWrQ                   464640                       # Total number of bytes read from write queue
system.nvm_ctrl.bytesReadSys                   490816                       # Total read bytes from the system interface side
system.nvm_ctrl.bytesWrittenSys                469120                       # Total written bytes from the system interface side
system.nvm_ctrl.avgRdBWSys                       0.53                       # Average system read bandwidth in MiByte/s
system.nvm_ctrl.avgWrBWSys                       0.51                       # Average system write bandwidth in MiByte/s
system.nvm_ctrl.totGap                   925422128000                       # Total gap between requests
system.nvm_ctrl.avgGap                    61698921.79                       # Average gap between requests
system.nvm_ctrl.requestorReadBytes::.cpu.data        26176                       # Per-requestor bytes read from memory
system.nvm_ctrl.requestorWriteBytes::.writebacks         6912                       # Per-requestor bytes write to memory
system.nvm_ctrl.requestorReadRate::.cpu.data 28284.375502643044                       # Per-requestor bytes read from memory rate (Bytes/sec)
system.nvm_ctrl.requestorWriteRate::.writebacks 7468.734851553665                       # Per-requestor bytes write to memory rate (Bytes/sec)
system.nvm_ctrl.requestorReadAccesses::.cpu.data         7669                       # Per-requestor read serviced memory accesses
system.nvm_ctrl.requestorWriteAccesses::.writebacks         7330                       # Per-requestor write serviced memory accesses
system.nvm_ctrl.requestorReadTotalLat::.cpu.data      7260342                       # Per-requestor read total memory access latency
system.nvm_ctrl.requestorWriteTotalLat::.writebacks 40691645733912                       # Per-requestor write total memory access latency
system.nvm_ctrl.requestorReadAvgLat::.cpu.data       946.71                       # Per-requestor read average memory access latency
system.nvm_ctrl.requestorWriteAvgLat::.writebacks 5551384138.32                       # Per-requestor write average memory access latency
system.nvm_ctrl.nvm.bytes_read::.cpu.data       490816                       # Number of bytes read from this memory
system.nvm_ctrl.nvm.bytes_read::total          490816                       # Number of bytes read from this memory
system.nvm_ctrl.nvm.bytes_written::.writebacks       469120                       # Number of bytes written to this memory
system.nvm_ctrl.nvm.bytes_written::total       469120                       # Number of bytes written to this memory
system.nvm_ctrl.nvm.num_reads::.cpu.data         7669                       # Number of read requests responded to by this memory
system.nvm_ctrl.nvm.num_reads::total             7669                       # Number of read requests responded to by this memory
system.nvm_ctrl.nvm.num_writes::.writebacks         7330                       # Number of write requests responded to by this memory
system.nvm_ctrl.nvm.num_writes::total            7330                       # Number of write requests responded to by this memory
system.nvm_ctrl.nvm.bw_read::.cpu.data         530349                       # Total read bandwidth from this memory (bytes/s)
system.nvm_ctrl.nvm.bw_read::total             530349                       # Total read bandwidth from this memory (bytes/s)
system.nvm_ctrl.nvm.bw_write::.writebacks       506906                       # Write bandwidth from this memory (bytes/s)
system.nvm_ctrl.nvm.bw_write::total            506906                       # Write bandwidth from this memory (bytes/s)
system.nvm_ctrl.nvm.bw_total::.writebacks       506906                       # Total bandwidth to/from this memory (bytes/s)
system.nvm_ctrl.nvm.bw_total::.cpu.data        530349                       # Total bandwidth to/from this memory (bytes/s)
system.nvm_ctrl.nvm.bw_total::total           1037255                       # Total bandwidth to/from this memory (bytes/s)
system.nvm_ctrl.nvm.readBursts                    409                       # Number of NVM read bursts
system.nvm_ctrl.nvm.writeBursts                   108                       # Number of NVM write bursts
system.nvm_ctrl.nvm.perBankRdBursts::0             27                       # Per bank write bursts
system.nvm_ctrl.nvm.perBankRdBursts::1             28                       # Per bank write bursts
system.nvm_ctrl.nvm.perBankRdBursts::2             31                       # Per bank write bursts
system.nvm_ctrl.nvm.perBankRdBursts::3             26                       # Per bank write bursts
system.nvm_ctrl.nvm.perBankRdBursts::4             25                       # Per bank write bursts
system.nvm_ctrl.nvm.perBankRdBursts::5             28                       # Per bank write bursts
system.nvm_ctrl.nvm.perBankRdBursts::6             25                       # Per bank write bursts
system.nvm_ctrl.nvm.perBankRdBursts::7             27                       # Per bank write bursts
system.nvm_ctrl.nvm.perBankRdBursts::8             47                       # Per bank write bursts
system.nvm_ctrl.nvm.perBankRdBursts::9             25                       # Per bank write bursts
system.nvm_ctrl.nvm.perBankRdBursts::10            33                       # Per bank write bursts
system.nvm_ctrl.nvm.perBankRdBursts::11            34                       # Per bank write bursts
system.nvm_ctrl.nvm.perBankRdBursts::12            19                       # Per bank write bursts
system.nvm_ctrl.nvm.perBankRdBursts::13            12                       # Per bank write bursts
system.nvm_ctrl.nvm.perBankRdBursts::14            11                       # Per bank write bursts
system.nvm_ctrl.nvm.perBankRdBursts::15            11                       # Per bank write bursts
system.nvm_ctrl.nvm.perBankWrBursts::0              3                       # Per bank write bursts
system.nvm_ctrl.nvm.perBankWrBursts::1              5                       # Per bank write bursts
system.nvm_ctrl.nvm.perBankWrBursts::2              8                       # Per bank write bursts
system.nvm_ctrl.nvm.perBankWrBursts::3              8                       # Per bank write bursts
system.nvm_ctrl.nvm.perBankWrBursts::4              8                       # Per bank write bursts
system.nvm_ctrl.nvm.perBankWrBursts::5              8                       # Per bank write bursts
system.nvm_ctrl.nvm.perBankWrBursts::6              8                       # Per bank write bursts
system.nvm_ctrl.nvm.perBankWrBursts::7              8                       # Per bank write bursts
system.nvm_ctrl.nvm.perBankWrBursts::8             12                       # Per bank write bursts
system.nvm_ctrl.nvm.perBankWrBursts::9              8                       # Per bank write bursts
system.nvm_ctrl.nvm.perBankWrBursts::10             8                       # Per bank write bursts
system.nvm_ctrl.nvm.perBankWrBursts::11             8                       # Per bank write bursts
system.nvm_ctrl.nvm.perBankWrBursts::12             4                       # Per bank write bursts
system.nvm_ctrl.nvm.perBankWrBursts::13             4                       # Per bank write bursts
system.nvm_ctrl.nvm.perBankWrBursts::14             4                       # Per bank write bursts
system.nvm_ctrl.nvm.perBankWrBursts::15             4                       # Per bank write bursts
system.nvm_ctrl.nvm.totQLat                    106114                       # Total ticks spent queuing
system.nvm_ctrl.nvm.totBusLat                 1362788                       # Total ticks spent in databus transfers
system.nvm_ctrl.nvm.totMemAccLat              7260342                       # Total ticks spent from burst creation until serviced by the NVM
system.nvm_ctrl.nvm.avgQLat                    259.45                       # Average queueing delay per NVM burst
system.nvm_ctrl.nvm.avgBusLat                 3332.00                       # Average bus latency per NVM burst
system.nvm_ctrl.nvm.avgMemAccLat             17751.45                       # Average memory access latency per NVM burst
system.nvm_ctrl.nvm.bytesRead                   26176                       # Total number of bytes read from DRAM
system.nvm_ctrl.nvm.bytesWritten                 6912                       # Total number of bytes written to DRAM
system.nvm_ctrl.nvm.avgRdBW                      0.03                       # Average DRAM read bandwidth in MiBytes/s
system.nvm_ctrl.nvm.avgWrBW                      0.01                       # Average DRAM write bandwidth in MiBytes/s
system.nvm_ctrl.nvm.peakBW                   19207.00                       # Theoretical peak bandwidth in MiByte/s
system.nvm_ctrl.nvm.busUtil                      0.00                       # NVM Data bus utilization in percentage
system.nvm_ctrl.nvm.busUtilRead                  0.00                       # NVM Data bus read utilization in percentage
system.nvm_ctrl.nvm.busUtilWrite                 0.00                       # NVM Data bus write utilization in percentage
system.nvm_ctrl.nvm.pendingReads::samples          409                       # Reads issued to NVM for which data has not been transferred
system.nvm_ctrl.nvm.pendingReads::0               409    100.00%    100.00% # Reads issued to NVM for which data has not been transferred
system.nvm_ctrl.nvm.pendingReads::total           409                       # Reads issued to NVM for which data has not been transferred
system.nvm_ctrl.nvm.pendingWrites::samples          108                       # Number of outstanding writes to NVM
system.nvm_ctrl.nvm.pendingWrites::mean      5.833333                       # Number of outstanding writes to NVM
system.nvm_ctrl.nvm.pendingWrites::gmean     5.273991                       # Number of outstanding writes to NVM
system.nvm_ctrl.nvm.pendingWrites::stdev     1.931055                       # Number of outstanding writes to NVM
system.nvm_ctrl.nvm.pendingWrites::1                6      5.56%      5.56% # Number of outstanding writes to NVM
system.nvm_ctrl.nvm.pendingWrites::2                6      5.56%     11.11% # Number of outstanding writes to NVM
system.nvm_ctrl.nvm.pendingWrites::3                6      5.56%     16.67% # Number of outstanding writes to NVM
system.nvm_ctrl.nvm.pendingWrites::4                6      5.56%     22.22% # Number of outstanding writes to NVM
system.nvm_ctrl.nvm.pendingWrites::5                6      5.56%     27.78% # Number of outstanding writes to NVM
system.nvm_ctrl.nvm.pendingWrites::6                6      5.56%     33.33% # Number of outstanding writes to NVM
system.nvm_ctrl.nvm.pendingWrites::7               72     66.67%    100.00% # Number of outstanding writes to NVM
system.nvm_ctrl.nvm.pendingWrites::total          108                       # Number of outstanding writes to NVM
system.nvm_ctrl.nvm.bytesPerBank::samples          105                       # Bytes read within a bank before loading new bank
system.nvm_ctrl.nvm.bytesPerBank::mean     263.314286                       # Bytes read within a bank before loading new bank
system.nvm_ctrl.nvm.bytesPerBank::gmean    201.876661                       # Bytes read within a bank before loading new bank
system.nvm_ctrl.nvm.bytesPerBank::stdev    178.679306                       # Bytes read within a bank before loading new bank
system.nvm_ctrl.nvm.bytesPerBank::64-67            27     25.71%     25.71% # Bytes read within a bank before loading new bank
system.nvm_ctrl.nvm.bytesPerBank::128-131            8      7.62%     33.33% # Bytes read within a bank before loading new bank
system.nvm_ctrl.nvm.bytesPerBank::192-195            4      3.81%     37.14% # Bytes read within a bank before loading new bank
system.nvm_ctrl.nvm.bytesPerBank::256-259           36     34.29%     71.43% # Bytes read within a bank before loading new bank
system.nvm_ctrl.nvm.bytesPerBank::384-387            6      5.71%     77.14% # Bytes read within a bank before loading new bank
system.nvm_ctrl.nvm.bytesPerBank::448-451           11     10.48%     87.62% # Bytes read within a bank before loading new bank
system.nvm_ctrl.nvm.bytesPerBank::512-515            9      8.57%     96.19% # Bytes read within a bank before loading new bank
system.nvm_ctrl.nvm.bytesPerBank::640-643            1      0.95%     97.14% # Bytes read within a bank before loading new bank
system.nvm_ctrl.nvm.bytesPerBank::704-707            1      0.95%     98.10% # Bytes read within a bank before loading new bank
system.nvm_ctrl.nvm.bytesPerBank::832-835            1      0.95%     99.05% # Bytes read within a bank before loading new bank
system.nvm_ctrl.nvm.bytesPerBank::896-899            1      0.95%    100.00% # Bytes read within a bank before loading new bank
system.nvm_ctrl.nvm.bytesPerBank::total           105                       # Bytes read within a bank before loading new bank
system.nvm_ctrl.nvm.power_state.pwrStateResidencyTicks::UNDEFINED 925457944000                       # Cumulative time (in ticks) in various power states
system.nvm_ctrl.power_state.pwrStateResidencyTicks::UNDEFINED 925457944000                       # Cumulative time (in ticks) in various power states

---------- End Simulation Statistics   ----------
