
---------- Begin Simulation Statistics ----------
final_tick                                11198281000                       # Number of ticks from beginning of simulation (restored from checkpoints and never reset)
host_inst_rate                                 979504                       # Simulator instruction rate (inst/s)
host_mem_usage                                1179052                       # Number of bytes of host memory used
host_op_rate                                  1801046                       # Simulator op (including micro ops) rate (op/s)
host_seconds                                     3.16                       # Real time elapsed on the host
host_tick_rate                             3545005834                       # Simulator tick rate (ticks/s)
sim_freq                                 1000000000000                       # Frequency of simulated ticks
sim_insts                                     3094071                       # Number of instructions simulated
sim_ops                                       5689283                       # Number of ops (including micro ops) simulated
sim_seconds                                  0.011198                       # Number of seconds simulated
sim_ticks                                 11198281000                       # Number of ticks simulated
system.cpu.Branches                            597871                       # Number of branches fetched
system.cpu.committedInsts                     3094071                       # Number of instructions committed
system.cpu.committedOps                       5689283                       # Number of ops (including micro ops) committed
system.cpu.idle_fraction                     0.000000                       # Percentage of idle cycles
system.cpu.not_idle_fraction                 1.000000                       # Percentage of non-idle cycles
system.cpu.numCycles                         11198281                       # number of cpu cycles simulated
system.cpu.numWorkItemsCompleted                    0                       # number of work items this cpu completed
system.cpu.numWorkItemsStarted                      0                       # number of work items this cpu started
system.cpu.num_busy_cycles               11198280.999000                       # Number of busy cycles
system.cpu.num_cc_register_reads              2791546                       # number of times the CC registers were read
system.cpu.num_cc_register_writes             1722029                       # number of times the CC registers were written
system.cpu.num_conditional_control_insts       428624                       # number of instructions that are conditional controls
system.cpu.num_fp_alu_accesses                 459087                       # Number of float alu accesses
system.cpu.num_fp_insts                        459087                       # number of float instructions
system.cpu.num_fp_register_reads               571178                       # number of times the floating registers were read
system.cpu.num_fp_register_writes              387232                       # number of times the floating registers were written
system.cpu.num_func_calls                       99742                       # number of times a function call or return occured
system.cpu.num_idle_cycles                   0.001000                       # Number of idle cycles
system.cpu.num_int_alu_accesses               5323839                       # Number of integer alu accesses
system.cpu.num_int_insts                      5323839                       # number of integer instructions
system.cpu.num_int_register_reads            10623066                       # number of times the integer registers were read
system.cpu.num_int_register_writes            4264640                       # number of times the integer registers were written
system.cpu.num_load_insts                      807083                       # Number of load instructions
system.cpu.num_mem_refs                       1256353                       # number of memory refs
system.cpu.num_store_insts                     449270                       # Number of store instructions
system.cpu.num_vec_alu_accesses                     0                       # Number of vector alu accesses
system.cpu.num_vec_insts                            0                       # number of vector instructions
system.cpu.num_vec_register_reads                   0                       # number of times the vector registers were read
system.cpu.num_vec_register_writes                  0                       # number of times the vector registers were written
system.cpu.op_class::No_OpClass                 79275      1.39%      1.39% # Class of executed instruction
system.cpu.op_class::IntAlu                   4038524     70.98%     72.38% # Class of executed instruction
system.cpu.op_class::IntMult                     8176      0.14%     72.52% # Class of executed instruction
system.cpu.op_class::IntDiv                     37338      0.66%     73.18% # Class of executed instruction
system.cpu.op_class::FloatAdd                   85157      1.50%     74.67% # Class of executed instruction
system.cpu.op_class::FloatCmp                       0      0.00%     74.67% # Class of executed instruction
system.cpu.op_class::FloatCvt                       0      0.00%     74.67% # Class of executed instruction
system.cpu.op_class::FloatMult                      0      0.00%     74.67% # Class of executed instruction
system.cpu.op_class::FloatMultAcc                   0      0.00%     74.67% # Class of executed instruction
system.cpu.op_class::FloatDiv                       0      0.00%     74.67% # Class of executed instruction
system.cpu.op_class::FloatMisc                      0      0.00%     74.67% # Class of executed instruction
system.cpu.op_class::FloatSqrt                      0      0.00%     74.67% # Class of executed instruction
system.cpu.op_class::SimdAdd                        0      0.00%     74.67% # Class of executed instruction
system.cpu.op_class::SimdAddAcc                     0      0.00%     74.67% # Class of executed instruction
system.cpu.op_class::SimdAlu                    30822      0.54%     75.22% # Class of executed instruction
system.cpu.op_class::SimdCmp                        0      0.00%     75.22% # Class of executed instruction
system.cpu.op_class::SimdCvt                     7734      0.14%     75.35% # Class of executed instruction
system.cpu.op_class::SimdMisc                   29273      0.51%     75.87% # Class of executed instruction
system.cpu.op_class::SimdMult                       0      0.00%     75.87% # Class of executed instruction
system.cpu.op_class::SimdMultAcc                    0      0.00%     75.87% # Class of executed instruction
system.cpu.op_class::SimdShift                      0      0.00%     75.87% # Class of executed instruction
system.cpu.op_class::SimdShiftAcc                   0      0.00%     75.87% # Class of executed instruction
system.cpu.op_class::SimdDiv                        0      0.00%     75.87% # Class of executed instruction
system.cpu.op_class::SimdSqrt                       0      0.00%     75.87% # Class of executed instruction
system.cpu.op_class::SimdFloatAdd               49316      0.87%     76.73% # Class of executed instruction
system.cpu.op_class::SimdFloatAlu                   0      0.00%     76.73% # Class of executed instruction
system.cpu.op_class::SimdFloatCmp                   0      0.00%     76.73% # Class of executed instruction
system.cpu.op_class::SimdFloatCvt               30932      0.54%     77.28% # Class of executed instruction
system.cpu.op_class::SimdFloatDiv                 527      0.01%     77.29% # Class of executed instruction
system.cpu.op_class::SimdFloatMisc                  0      0.00%     77.29% # Class of executed instruction
system.cpu.op_class::SimdFloatMult              35880      0.63%     77.92% # Class of executed instruction
system.cpu.op_class::SimdFloatMultAcc               0      0.00%     77.92% # Class of executed instruction
system.cpu.op_class::SimdFloatSqrt                  0      0.00%     77.92% # Class of executed instruction
system.cpu.op_class::SimdReduceAdd                  0      0.00%     77.92% # Class of executed instruction
system.cpu.op_class::SimdReduceAlu                  0      0.00%     77.92% # Class of executed instruction
system.cpu.op_class::SimdReduceCmp                  0      0.00%     77.92% # Class of executed instruction
system.cpu.op_class::SimdFloatReduceAdd             0      0.00%     77.92% # Class of executed instruction
system.cpu.op_class::SimdFloatReduceCmp             0      0.00%     77.92% # Class of executed instruction
system.cpu.op_class::SimdAes                        0      0.00%     77.92% # Class of executed instruction
system.cpu.op_class::SimdAesMix                     0      0.00%     77.92% # Class of executed instruction
system.cpu.op_class::SimdSha1Hash                   0      0.00%     77.92% # Class of executed instruction
system.cpu.op_class::SimdSha1Hash2                  0      0.00%     77.92% # Class of executed instruction
system.cpu.op_class::SimdSha256Hash                 0      0.00%     77.92% # Class of executed instruction
system.cpu.op_class::SimdSha256Hash2                0      0.00%     77.92% # Class of executed instruction
system.cpu.op_class::SimdShaSigma2                  0      0.00%     77.92% # Class of executed instruction
system.cpu.op_class::SimdShaSigma3                  0      0.00%     77.92% # Class of executed instruction
system.cpu.op_class::SimdPredAlu                    0      0.00%     77.92% # Class of executed instruction
system.cpu.op_class::MemRead                   709852     12.48%     90.39% # Class of executed instruction
system.cpu.op_class::MemWrite                  393582      6.92%     97.31% # Class of executed instruction
system.cpu.op_class::FloatMemRead               97231      1.71%     99.02% # Class of executed instruction
system.cpu.op_class::FloatMemWrite              55688      0.98%    100.00% # Class of executed instruction
system.cpu.op_class::IprAccess                      0      0.00%    100.00% # Class of executed instruction
system.cpu.op_class::InstPrefetch                   0      0.00%    100.00% # Class of executed instruction
system.cpu.op_class::total                    5689307                       # Class of executed instruction
system.cpu.workload.numSyscalls                    19                       # Number of system calls
system.l2bus.snoop_filter.hit_multi_requests            0                       # Number of requests hitting in the snoop filter with multiple (>1) holders of the requested data.
system.l2bus.snoop_filter.hit_multi_snoops            0                       # Number of snoops hitting in the snoop filter with multiple (>1) holders of the requested data.
system.l2bus.snoop_filter.hit_single_requests        14733                       # Number of requests hitting in the snoop filter with a single holder of the requested data.
system.l2bus.snoop_filter.hit_single_snoops            0                       # Number of snoops hitting in the snoop filter with a single holder of the requested data.
system.l2bus.snoop_filter.tot_requests          30138                       # Total number of requests made to the snoop filter.
system.l2bus.snoop_filter.tot_snoops                0                       # Total number of snoops made to the snoop filter.
system.membus.snoop_filter.hit_multi_requests            0                       # Number of requests hitting in the snoop filter with multiple (>1) holders of the requested data.
system.membus.snoop_filter.hit_multi_snoops            0                       # Number of snoops hitting in the snoop filter with multiple (>1) holders of the requested data.
system.membus.snoop_filter.hit_single_requests            0                       # Number of requests hitting in the snoop filter with a single holder of the requested data.
system.membus.snoop_filter.hit_single_snoops            0                       # Number of snoops hitting in the snoop filter with a single holder of the requested data.
system.membus.snoop_filter.tot_requests          1206                       # Total number of requests made to the snoop filter.
system.membus.snoop_filter.tot_snoops               0                       # Total number of snoops made to the snoop filter.
system.clk_domain.clock                          1000                       # Clock period in ticks
system.clk_domain.voltage_domain.voltage            1                       # Voltage in Volts
system.cpu.dcache.demand_hits::.cpu.data      1256634                       # number of demand (read+write) hits
system.cpu.dcache.demand_hits::total          1256634                       # number of demand (read+write) hits
system.cpu.dcache.overall_hits::.cpu.data      1256634                       # number of overall hits
system.cpu.dcache.overall_hits::total         1256634                       # number of overall hits
system.cpu.dcache.demand_misses::.cpu.data          515                       # number of demand (read+write) misses
system.cpu.dcache.demand_misses::total            515                       # number of demand (read+write) misses
system.cpu.dcache.overall_misses::.cpu.data          515                       # number of overall misses
system.cpu.dcache.overall_misses::total           515                       # number of overall misses
system.cpu.dcache.demand_miss_latency::.cpu.data     79510000                       # number of demand (read+write) miss cycles
system.cpu.dcache.demand_miss_latency::total     79510000                       # number of demand (read+write) miss cycles
system.cpu.dcache.overall_miss_latency::.cpu.data     79510000                       # number of overall miss cycles
system.cpu.dcache.overall_miss_latency::total     79510000                       # number of overall miss cycles
system.cpu.dcache.demand_accesses::.cpu.data      1257149                       # number of demand (read+write) accesses
system.cpu.dcache.demand_accesses::total      1257149                       # number of demand (read+write) accesses
system.cpu.dcache.overall_accesses::.cpu.data      1257149                       # number of overall (read+write) accesses
system.cpu.dcache.overall_accesses::total      1257149                       # number of overall (read+write) accesses
system.cpu.dcache.demand_miss_rate::.cpu.data     0.000410                       # miss rate for demand accesses
system.cpu.dcache.demand_miss_rate::total     0.000410                       # miss rate for demand accesses
system.cpu.dcache.overall_miss_rate::.cpu.data     0.000410                       # miss rate for overall accesses
system.cpu.dcache.overall_miss_rate::total     0.000410                       # miss rate for overall accesses
system.cpu.dcache.demand_avg_miss_latency::.cpu.data 154388.349515                       # average overall miss latency
system.cpu.dcache.demand_avg_miss_latency::total 154388.349515                       # average overall miss latency
system.cpu.dcache.overall_avg_miss_latency::.cpu.data 154388.349515                       # average overall miss latency
system.cpu.dcache.overall_avg_miss_latency::total 154388.349515                       # average overall miss latency
system.cpu.dcache.blocked_cycles::no_mshrs            0                       # number of cycles access was blocked
system.cpu.dcache.blocked_cycles::no_targets            0                       # number of cycles access was blocked
system.cpu.dcache.blocked::no_mshrs                 0                       # number of cycles access was blocked
system.cpu.dcache.blocked::no_targets               0                       # number of cycles access was blocked
system.cpu.dcache.avg_blocked_cycles::no_mshrs          nan                       # average number of cycles each access was blocked
system.cpu.dcache.avg_blocked_cycles::no_targets          nan                       # average number of cycles each access was blocked
system.cpu.dcache.writebacks::.writebacks           41                       # number of writebacks
system.cpu.dcache.writebacks::total                41                       # number of writebacks
system.cpu.dcache.demand_mshr_misses::.cpu.data          515                       # number of demand (read+write) MSHR misses
system.cpu.dcache.demand_mshr_misses::total          515                       # number of demand (read+write) MSHR misses
system.cpu.dcache.overall_mshr_misses::.cpu.data          515                       # number of overall MSHR misses
system.cpu.dcache.overall_mshr_misses::total          515                       # number of overall MSHR misses
system.cpu.dcache.demand_mshr_miss_latency::.cpu.data     78480000                       # number of demand (read+write) MSHR miss cycles
system.cpu.dcache.demand_mshr_miss_latency::total     78480000                       # number of demand (read+write) MSHR miss cycles
system.cpu.dcache.overall_mshr_miss_latency::.cpu.data     78480000                       # number of overall MSHR miss cycles
system.cpu.dcache.overall_mshr_miss_latency::total     78480000                       # number of overall MSHR miss cycles
system.cpu.dcache.demand_mshr_miss_rate::.cpu.data     0.000410                       # mshr miss rate for demand accesses
system.cpu.dcache.demand_mshr_miss_rate::total     0.000410                       # mshr miss rate for demand accesses
system.cpu.dcache.overall_mshr_miss_rate::.cpu.data     0.000410                       # mshr miss rate for overall accesses
system.cpu.dcache.overall_mshr_miss_rate::total     0.000410                       # mshr miss rate for overall accesses
system.cpu.dcache.demand_avg_mshr_miss_latency::.cpu.data 152388.349515                       # average overall mshr miss latency
system.cpu.dcache.demand_avg_mshr_miss_latency::total 152388.349515                       # average overall mshr miss latency
system.cpu.dcache.overall_avg_mshr_miss_latency::.cpu.data 152388.349515                       # average overall mshr miss latency
system.cpu.dcache.overall_avg_mshr_miss_latency::total 152388.349515                       # average overall mshr miss latency
system.cpu.dcache.replacements                     98                       # number of replacements
system.cpu.dcache.ReadReq_hits::.cpu.data       807619                       # number of ReadReq hits
system.cpu.dcache.ReadReq_hits::total          807619                       # number of ReadReq hits
system.cpu.dcache.ReadReq_misses::.cpu.data          233                       # number of ReadReq misses
system.cpu.dcache.ReadReq_misses::total           233                       # number of ReadReq misses
system.cpu.dcache.ReadReq_miss_latency::.cpu.data     19983000                       # number of ReadReq miss cycles
system.cpu.dcache.ReadReq_miss_latency::total     19983000                       # number of ReadReq miss cycles
system.cpu.dcache.ReadReq_accesses::.cpu.data       807852                       # number of ReadReq accesses(hits+misses)
system.cpu.dcache.ReadReq_accesses::total       807852                       # number of ReadReq accesses(hits+misses)
system.cpu.dcache.ReadReq_miss_rate::.cpu.data     0.000288                       # miss rate for ReadReq accesses
system.cpu.dcache.ReadReq_miss_rate::total     0.000288                       # miss rate for ReadReq accesses
system.cpu.dcache.ReadReq_avg_miss_latency::.cpu.data 85763.948498                       # average ReadReq miss latency
system.cpu.dcache.ReadReq_avg_miss_latency::total 85763.948498                       # average ReadReq miss latency
system.cpu.dcache.ReadReq_mshr_misses::.cpu.data          233                       # number of ReadReq MSHR misses
system.cpu.dcache.ReadReq_mshr_misses::total          233                       # number of ReadReq MSHR misses
system.cpu.dcache.ReadReq_mshr_miss_latency::.cpu.data     19517000                       # number of ReadReq MSHR miss cycles
system.cpu.dcache.ReadReq_mshr_miss_latency::total     19517000                       # number of ReadReq MSHR miss cycles
system.cpu.dcache.ReadReq_mshr_miss_rate::.cpu.data     0.000288                       # mshr miss rate for ReadReq accesses
system.cpu.dcache.ReadReq_mshr_miss_rate::total     0.000288                       # mshr miss rate for ReadReq accesses
system.cpu.dcache.ReadReq_avg_mshr_miss_latency::.cpu.data 83763.948498                       # average ReadReq mshr miss latency
system.cpu.dcache.ReadReq_avg_mshr_miss_latency::total 83763.948498                       # average ReadReq mshr miss latency
system.cpu.dcache.WriteReq_hits::.cpu.data       449015                       # number of WriteReq hits
system.cpu.dcache.WriteReq_hits::total         449015                       # number of WriteReq hits
system.cpu.dcache.WriteReq_misses::.cpu.data          282                       # number of WriteReq misses
system.cpu.dcache.WriteReq_misses::total          282                       # number of WriteReq misses
system.cpu.dcache.WriteReq_miss_latency::.cpu.data     59527000                       # number of WriteReq miss cycles
system.cpu.dcache.WriteReq_miss_latency::total     59527000                       # number of WriteReq miss cycles
system.cpu.dcache.WriteReq_accesses::.cpu.data       449297                       # number of WriteReq accesses(hits+misses)
system.cpu.dcache.WriteReq_accesses::total       449297                       # number of WriteReq accesses(hits+misses)
system.cpu.dcache.WriteReq_miss_rate::.cpu.data     0.000628                       # miss rate for WriteReq accesses
system.cpu.dcache.WriteReq_miss_rate::total     0.000628                       # miss rate for WriteReq accesses
system.cpu.dcache.WriteReq_avg_miss_latency::.cpu.data 211088.652482                       # average WriteReq miss latency
system.cpu.dcache.WriteReq_avg_miss_latency::total 211088.652482                       # average WriteReq miss latency
system.cpu.dcache.WriteReq_mshr_misses::.cpu.data          282                       # number of WriteReq MSHR misses
system.cpu.dcache.WriteReq_mshr_misses::total          282                       # number of WriteReq MSHR misses
system.cpu.dcache.WriteReq_mshr_miss_latency::.cpu.data     58963000                       # number of WriteReq MSHR miss cycles
system.cpu.dcache.WriteReq_mshr_miss_latency::total     58963000                       # number of WriteReq MSHR miss cycles
system.cpu.dcache.WriteReq_mshr_miss_rate::.cpu.data     0.000628                       # mshr miss rate for WriteReq accesses
system.cpu.dcache.WriteReq_mshr_miss_rate::total     0.000628                       # mshr miss rate for WriteReq accesses
system.cpu.dcache.WriteReq_avg_mshr_miss_latency::.cpu.data 209088.652482                       # average WriteReq mshr miss latency
system.cpu.dcache.WriteReq_avg_mshr_miss_latency::total 209088.652482                       # average WriteReq mshr miss latency
system.cpu.dcache.power_state.pwrStateResidencyTicks::UNDEFINED  11198281000                       # Cumulative time (in ticks) in various power states
system.cpu.dcache.tags.tagsinuse           377.012550                       # Cycle average of tags in use
system.cpu.dcache.tags.total_refs             1257149                       # Total number of references to valid blocks.
system.cpu.dcache.tags.sampled_refs               515                       # Sample count of references to valid blocks.
system.cpu.dcache.tags.avg_refs           2441.066019                       # Average number of references to valid blocks.
system.cpu.dcache.tags.warmup_cycle            196000                       # Cycle when the warmup percentage was hit.
system.cpu.dcache.tags.occ_blocks::.cpu.data   377.012550                       # Average occupied blocks per requestor
system.cpu.dcache.tags.occ_percent::.cpu.data     0.368176                       # Average percentage of cache occupancy
system.cpu.dcache.tags.occ_percent::total     0.368176                       # Average percentage of cache occupancy
system.cpu.dcache.tags.occ_task_id_blocks::1024          417                       # Occupied blocks per task id
system.cpu.dcache.tags.age_task_id_blocks_1024::0           15                       # Occupied blocks per task id
system.cpu.dcache.tags.age_task_id_blocks_1024::3           73                       # Occupied blocks per task id
system.cpu.dcache.tags.age_task_id_blocks_1024::4          329                       # Occupied blocks per task id
system.cpu.dcache.tags.occ_task_id_percent::1024     0.407227                       # Percentage of cache occupancy per task id
system.cpu.dcache.tags.tag_accesses           2514813                       # Number of tag accesses
system.cpu.dcache.tags.data_accesses          2514813                       # Number of data accesses
system.cpu.dcache.tags.power_state.pwrStateResidencyTicks::UNDEFINED  11198281000                       # Cumulative time (in ticks) in various power states
system.cpu.dtb.rdAccesses                      807853                       # TLB accesses on read requests
system.cpu.dtb.wrAccesses                      449301                       # TLB accesses on write requests
system.cpu.dtb.rdMisses                            16                       # TLB misses on read requests
system.cpu.dtb.wrMisses                            18                       # TLB misses on write requests
system.cpu.dtb.walker.power_state.pwrStateResidencyTicks::UNDEFINED  11198281000                       # Cumulative time (in ticks) in various power states
system.cpu.icache.demand_hits::.cpu.inst      4083545                       # number of demand (read+write) hits
system.cpu.icache.demand_hits::total          4083545                       # number of demand (read+write) hits
system.cpu.icache.overall_hits::.cpu.inst      4083545                       # number of overall hits
system.cpu.icache.overall_hits::total         4083545                       # number of overall hits
system.cpu.icache.demand_misses::.cpu.inst        14890                       # number of demand (read+write) misses
system.cpu.icache.demand_misses::total          14890                       # number of demand (read+write) misses
system.cpu.icache.overall_misses::.cpu.inst        14890                       # number of overall misses
system.cpu.icache.overall_misses::total         14890                       # number of overall misses
system.cpu.icache.demand_miss_latency::.cpu.inst    439246000                       # number of demand (read+write) miss cycles
system.cpu.icache.demand_miss_latency::total    439246000                       # number of demand (read+write) miss cycles
system.cpu.icache.overall_miss_latency::.cpu.inst    439246000                       # number of overall miss cycles
system.cpu.icache.overall_miss_latency::total    439246000                       # number of overall miss cycles
system.cpu.icache.demand_accesses::.cpu.inst      4098435                       # number of demand (read+write) accesses
system.cpu.icache.demand_accesses::total      4098435                       # number of demand (read+write) accesses
system.cpu.icache.overall_accesses::.cpu.inst      4098435                       # number of overall (read+write) accesses
system.cpu.icache.overall_accesses::total      4098435                       # number of overall (read+write) accesses
system.cpu.icache.demand_miss_rate::.cpu.inst     0.003633                       # miss rate for demand accesses
system.cpu.icache.demand_miss_rate::total     0.003633                       # miss rate for demand accesses
system.cpu.icache.overall_miss_rate::.cpu.inst     0.003633                       # miss rate for overall accesses
system.cpu.icache.overall_miss_rate::total     0.003633                       # miss rate for overall accesses
system.cpu.icache.demand_avg_miss_latency::.cpu.inst 29499.395567                       # average overall miss latency
system.cpu.icache.demand_avg_miss_latency::total 29499.395567                       # average overall miss latency
system.cpu.icache.overall_avg_miss_latency::.cpu.inst 29499.395567                       # average overall miss latency
system.cpu.icache.overall_avg_miss_latency::total 29499.395567                       # average overall miss latency
system.cpu.icache.blocked_cycles::no_mshrs            0                       # number of cycles access was blocked
system.cpu.icache.blocked_cycles::no_targets            0                       # number of cycles access was blocked
system.cpu.icache.blocked::no_mshrs                 0                       # number of cycles access was blocked
system.cpu.icache.blocked::no_targets               0                       # number of cycles access was blocked
system.cpu.icache.avg_blocked_cycles::no_mshrs          nan                       # average number of cycles each access was blocked
system.cpu.icache.avg_blocked_cycles::no_targets          nan                       # average number of cycles each access was blocked
system.cpu.icache.demand_mshr_misses::.cpu.inst        14890                       # number of demand (read+write) MSHR misses
system.cpu.icache.demand_mshr_misses::total        14890                       # number of demand (read+write) MSHR misses
system.cpu.icache.overall_mshr_misses::.cpu.inst        14890                       # number of overall MSHR misses
system.cpu.icache.overall_mshr_misses::total        14890                       # number of overall MSHR misses
system.cpu.icache.demand_mshr_miss_latency::.cpu.inst    409466000                       # number of demand (read+write) MSHR miss cycles
system.cpu.icache.demand_mshr_miss_latency::total    409466000                       # number of demand (read+write) MSHR miss cycles
system.cpu.icache.overall_mshr_miss_latency::.cpu.inst    409466000                       # number of overall MSHR miss cycles
system.cpu.icache.overall_mshr_miss_latency::total    409466000                       # number of overall MSHR miss cycles
system.cpu.icache.demand_mshr_miss_rate::.cpu.inst     0.003633                       # mshr miss rate for demand accesses
system.cpu.icache.demand_mshr_miss_rate::total     0.003633                       # mshr miss rate for demand accesses
system.cpu.icache.overall_mshr_miss_rate::.cpu.inst     0.003633                       # mshr miss rate for overall accesses
system.cpu.icache.overall_mshr_miss_rate::total     0.003633                       # mshr miss rate for overall accesses
system.cpu.icache.demand_avg_mshr_miss_latency::.cpu.inst 27499.395567                       # average overall mshr miss latency
system.cpu.icache.demand_avg_mshr_miss_latency::total 27499.395567                       # average overall mshr miss latency
system.cpu.icache.overall_avg_mshr_miss_latency::.cpu.inst 27499.395567                       # average overall mshr miss latency
system.cpu.icache.overall_avg_mshr_miss_latency::total 27499.395567                       # average overall mshr miss latency
system.cpu.icache.replacements                  14635                       # number of replacements
system.cpu.icache.ReadReq_hits::.cpu.inst      4083545                       # number of ReadReq hits
system.cpu.icache.ReadReq_hits::total         4083545                       # number of ReadReq hits
system.cpu.icache.ReadReq_misses::.cpu.inst        14890                       # number of ReadReq misses
system.cpu.icache.ReadReq_misses::total         14890                       # number of ReadReq misses
system.cpu.icache.ReadReq_miss_latency::.cpu.inst    439246000                       # number of ReadReq miss cycles
system.cpu.icache.ReadReq_miss_latency::total    439246000                       # number of ReadReq miss cycles
system.cpu.icache.ReadReq_accesses::.cpu.inst      4098435                       # number of ReadReq accesses(hits+misses)
system.cpu.icache.ReadReq_accesses::total      4098435                       # number of ReadReq accesses(hits+misses)
system.cpu.icache.ReadReq_miss_rate::.cpu.inst     0.003633                       # miss rate for ReadReq accesses
system.cpu.icache.ReadReq_miss_rate::total     0.003633                       # miss rate for ReadReq accesses
system.cpu.icache.ReadReq_avg_miss_latency::.cpu.inst 29499.395567                       # average ReadReq miss latency
system.cpu.icache.ReadReq_avg_miss_latency::total 29499.395567                       # average ReadReq miss latency
system.cpu.icache.ReadReq_mshr_misses::.cpu.inst        14890                       # number of ReadReq MSHR misses
system.cpu.icache.ReadReq_mshr_misses::total        14890                       # number of ReadReq MSHR misses
system.cpu.icache.ReadReq_mshr_miss_latency::.cpu.inst    409466000                       # number of ReadReq MSHR miss cycles
system.cpu.icache.ReadReq_mshr_miss_latency::total    409466000                       # number of ReadReq MSHR miss cycles
system.cpu.icache.ReadReq_mshr_miss_rate::.cpu.inst     0.003633                       # mshr miss rate for ReadReq accesses
system.cpu.icache.ReadReq_mshr_miss_rate::total     0.003633                       # mshr miss rate for ReadReq accesses
system.cpu.icache.ReadReq_avg_mshr_miss_latency::.cpu.inst 27499.395567                       # average ReadReq mshr miss latency
system.cpu.icache.ReadReq_avg_mshr_miss_latency::total 27499.395567                       # average ReadReq mshr miss latency
system.cpu.icache.power_state.pwrStateResidencyTicks::UNDEFINED  11198281000                       # Cumulative time (in ticks) in various power states
system.cpu.icache.tags.tagsinuse           252.687621                       # Cycle average of tags in use
system.cpu.icache.tags.total_refs             4098435                       # Total number of references to valid blocks.
system.cpu.icache.tags.sampled_refs             14890                       # Sample count of references to valid blocks.
system.cpu.icache.tags.avg_refs            275.247482                       # Average number of references to valid blocks.
system.cpu.icache.tags.warmup_cycle             93000                       # Cycle when the warmup percentage was hit.
system.cpu.icache.tags.occ_blocks::.cpu.inst   252.687621                       # Average occupied blocks per requestor
system.cpu.icache.tags.occ_percent::.cpu.inst     0.987061                       # Average percentage of cache occupancy
system.cpu.icache.tags.occ_percent::total     0.987061                       # Average percentage of cache occupancy
system.cpu.icache.tags.occ_task_id_blocks::1024          255                       # Occupied blocks per task id
system.cpu.icache.tags.age_task_id_blocks_1024::0           64                       # Occupied blocks per task id
system.cpu.icache.tags.age_task_id_blocks_1024::1           18                       # Occupied blocks per task id
system.cpu.icache.tags.age_task_id_blocks_1024::3           81                       # Occupied blocks per task id
system.cpu.icache.tags.age_task_id_blocks_1024::4           92                       # Occupied blocks per task id
system.cpu.icache.tags.occ_task_id_percent::1024     0.996094                       # Percentage of cache occupancy per task id
system.cpu.icache.tags.tag_accesses           8211760                       # Number of tag accesses
system.cpu.icache.tags.data_accesses          8211760                       # Number of data accesses
system.cpu.icache.tags.power_state.pwrStateResidencyTicks::UNDEFINED  11198281000                       # Cumulative time (in ticks) in various power states
system.cpu.interrupts.clk_domain.clock          16000                       # Clock period in ticks
system.cpu.itb.rdAccesses                           0                       # TLB accesses on read requests
system.cpu.itb.wrAccesses                     4098435                       # TLB accesses on write requests
system.cpu.itb.rdMisses                             0                       # TLB misses on read requests
system.cpu.itb.wrMisses                            61                       # TLB misses on write requests
system.cpu.itb.walker.power_state.pwrStateResidencyTicks::UNDEFINED  11198281000                       # Cumulative time (in ticks) in various power states
system.cpu.power_state.pwrStateResidencyTicks::ON  11198281000                       # Cumulative time (in ticks) in various power states
system.cpu.thread8819.numInsts                      0                       # Number of Instructions committed
system.cpu.thread8819.numOps                        0                       # Number of Ops committed
system.cpu.thread8819.numMemRefs                    0                       # Number of Memory References
system.l2bus.trans_dist::ReadResp               15123                       # Transaction distribution
system.l2bus.trans_dist::WritebackDirty            41                       # Transaction distribution
system.l2bus.trans_dist::CleanEvict             14692                       # Transaction distribution
system.l2bus.trans_dist::ReadExReq                282                       # Transaction distribution
system.l2bus.trans_dist::ReadExResp               282                       # Transaction distribution
system.l2bus.trans_dist::ReadSharedReq          15123                       # Transaction distribution
system.l2bus.pkt_count_system.cpu.icache.mem_side_port::system.l2cache.cpu_side_port        44415                       # Packet count per connected requestor and responder (bytes)
system.l2bus.pkt_count_system.cpu.dcache.mem_side_port::system.l2cache.cpu_side_port         1128                       # Packet count per connected requestor and responder (bytes)
system.l2bus.pkt_count::total                   45543                       # Packet count per connected requestor and responder (bytes)
system.l2bus.pkt_size_system.cpu.icache.mem_side_port::system.l2cache.cpu_side_port       952960                       # Cumulative packet size per connected requestor and responder (bytes)
system.l2bus.pkt_size_system.cpu.dcache.mem_side_port::system.l2cache.cpu_side_port        35584                       # Cumulative packet size per connected requestor and responder (bytes)
system.l2bus.pkt_size::total                   988544                       # Cumulative packet size per connected requestor and responder (bytes)
system.l2bus.snoops                                 0                       # Total snoops (count)
system.l2bus.snoopTraffic                           0                       # Total snoop traffic (bytes)
system.l2bus.snoop_fanout::samples              15405                       # Request fanout histogram
system.l2bus.snoop_fanout::mean                     0                       # Request fanout histogram
system.l2bus.snoop_fanout::stdev                    0                       # Request fanout histogram
system.l2bus.snoop_fanout::underflows               0      0.00%      0.00% # Request fanout histogram
system.l2bus.snoop_fanout::0                    15405    100.00%    100.00% # Request fanout histogram
system.l2bus.snoop_fanout::1                        0      0.00%    100.00% # Request fanout histogram
system.l2bus.snoop_fanout::2                        0      0.00%    100.00% # Request fanout histogram
system.l2bus.snoop_fanout::overflows                0      0.00%    100.00% # Request fanout histogram
system.l2bus.snoop_fanout::min_value                0                       # Request fanout histogram
system.l2bus.snoop_fanout::max_value                0                       # Request fanout histogram
system.l2bus.snoop_fanout::total                15405                       # Request fanout histogram
system.l2bus.power_state.pwrStateResidencyTicks::UNDEFINED  11198281000                       # Cumulative time (in ticks) in various power states
system.l2bus.reqLayer0.occupancy             30220000                       # Layer occupancy (ticks)
system.l2bus.reqLayer0.utilization                0.3                       # Layer utilization (%)
system.l2bus.respLayer0.occupancy            44670000                       # Layer occupancy (ticks)
system.l2bus.respLayer0.utilization               0.4                       # Layer utilization (%)
system.l2bus.respLayer1.occupancy             1545000                       # Layer occupancy (ticks)
system.l2bus.respLayer1.utilization               0.0                       # Layer utilization (%)
system.l2cache.demand_hits::.cpu.inst           14129                       # number of demand (read+write) hits
system.l2cache.demand_hits::.cpu.data              70                       # number of demand (read+write) hits
system.l2cache.demand_hits::total               14199                       # number of demand (read+write) hits
system.l2cache.overall_hits::.cpu.inst          14129                       # number of overall hits
system.l2cache.overall_hits::.cpu.data             70                       # number of overall hits
system.l2cache.overall_hits::total              14199                       # number of overall hits
system.l2cache.demand_misses::.cpu.inst           761                       # number of demand (read+write) misses
system.l2cache.demand_misses::.cpu.data           445                       # number of demand (read+write) misses
system.l2cache.demand_misses::total              1206                       # number of demand (read+write) misses
system.l2cache.overall_misses::.cpu.inst          761                       # number of overall misses
system.l2cache.overall_misses::.cpu.data          445                       # number of overall misses
system.l2cache.overall_misses::total             1206                       # number of overall misses
system.l2cache.demand_miss_latency::.cpu.inst     68087000                       # number of demand (read+write) miss cycles
system.l2cache.demand_miss_latency::.cpu.data     75465000                       # number of demand (read+write) miss cycles
system.l2cache.demand_miss_latency::total    143552000                       # number of demand (read+write) miss cycles
system.l2cache.overall_miss_latency::.cpu.inst     68087000                       # number of overall miss cycles
system.l2cache.overall_miss_latency::.cpu.data     75465000                       # number of overall miss cycles
system.l2cache.overall_miss_latency::total    143552000                       # number of overall miss cycles
system.l2cache.demand_accesses::.cpu.inst        14890                       # number of demand (read+write) accesses
system.l2cache.demand_accesses::.cpu.data          515                       # number of demand (read+write) accesses
system.l2cache.demand_accesses::total           15405                       # number of demand (read+write) accesses
system.l2cache.overall_accesses::.cpu.inst        14890                       # number of overall (read+write) accesses
system.l2cache.overall_accesses::.cpu.data          515                       # number of overall (read+write) accesses
system.l2cache.overall_accesses::total          15405                       # number of overall (read+write) accesses
system.l2cache.demand_miss_rate::.cpu.inst     0.051108                       # miss rate for demand accesses
system.l2cache.demand_miss_rate::.cpu.data     0.864078                       # miss rate for demand accesses
system.l2cache.demand_miss_rate::total       0.078286                       # miss rate for demand accesses
system.l2cache.overall_miss_rate::.cpu.inst     0.051108                       # miss rate for overall accesses
system.l2cache.overall_miss_rate::.cpu.data     0.864078                       # miss rate for overall accesses
system.l2cache.overall_miss_rate::total      0.078286                       # miss rate for overall accesses
system.l2cache.demand_avg_miss_latency::.cpu.inst 89470.433640                       # average overall miss latency
system.l2cache.demand_avg_miss_latency::.cpu.data 169584.269663                       # average overall miss latency
system.l2cache.demand_avg_miss_latency::total 119031.509121                       # average overall miss latency
system.l2cache.overall_avg_miss_latency::.cpu.inst 89470.433640                       # average overall miss latency
system.l2cache.overall_avg_miss_latency::.cpu.data 169584.269663                       # average overall miss latency
system.l2cache.overall_avg_miss_latency::total 119031.509121                       # average overall miss latency
system.l2cache.blocked_cycles::no_mshrs             0                       # number of cycles access was blocked
system.l2cache.blocked_cycles::no_targets            0                       # number of cycles access was blocked
system.l2cache.blocked::no_mshrs                    0                       # number of cycles access was blocked
system.l2cache.blocked::no_targets                  0                       # number of cycles access was blocked
system.l2cache.avg_blocked_cycles::no_mshrs          nan                       # average number of cycles each access was blocked
system.l2cache.avg_blocked_cycles::no_targets          nan                       # average number of cycles each access was blocked
system.l2cache.demand_mshr_misses::.cpu.inst          761                       # number of demand (read+write) MSHR misses
system.l2cache.demand_mshr_misses::.cpu.data          445                       # number of demand (read+write) MSHR misses
system.l2cache.demand_mshr_misses::total         1206                       # number of demand (read+write) MSHR misses
system.l2cache.overall_mshr_misses::.cpu.inst          761                       # number of overall MSHR misses
system.l2cache.overall_mshr_misses::.cpu.data          445                       # number of overall MSHR misses
system.l2cache.overall_mshr_misses::total         1206                       # number of overall MSHR misses
system.l2cache.demand_mshr_miss_latency::.cpu.inst     52867000                       # number of demand (read+write) MSHR miss cycles
system.l2cache.demand_mshr_miss_latency::.cpu.data     66565000                       # number of demand (read+write) MSHR miss cycles
system.l2cache.demand_mshr_miss_latency::total    119432000                       # number of demand (read+write) MSHR miss cycles
system.l2cache.overall_mshr_miss_latency::.cpu.inst     52867000                       # number of overall MSHR miss cycles
system.l2cache.overall_mshr_miss_latency::.cpu.data     66565000                       # number of overall MSHR miss cycles
system.l2cache.overall_mshr_miss_latency::total    119432000                       # number of overall MSHR miss cycles
system.l2cache.demand_mshr_miss_rate::.cpu.inst     0.051108                       # mshr miss rate for demand accesses
system.l2cache.demand_mshr_miss_rate::.cpu.data     0.864078                       # mshr miss rate for demand accesses
system.l2cache.demand_mshr_miss_rate::total     0.078286                       # mshr miss rate for demand accesses
system.l2cache.overall_mshr_miss_rate::.cpu.inst     0.051108                       # mshr miss rate for overall accesses
system.l2cache.overall_mshr_miss_rate::.cpu.data     0.864078                       # mshr miss rate for overall accesses
system.l2cache.overall_mshr_miss_rate::total     0.078286                       # mshr miss rate for overall accesses
system.l2cache.demand_avg_mshr_miss_latency::.cpu.inst 69470.433640                       # average overall mshr miss latency
system.l2cache.demand_avg_mshr_miss_latency::.cpu.data 149584.269663                       # average overall mshr miss latency
system.l2cache.demand_avg_mshr_miss_latency::total 99031.509121                       # average overall mshr miss latency
system.l2cache.overall_avg_mshr_miss_latency::.cpu.inst 69470.433640                       # average overall mshr miss latency
system.l2cache.overall_avg_mshr_miss_latency::.cpu.data 149584.269663                       # average overall mshr miss latency
system.l2cache.overall_avg_mshr_miss_latency::total 99031.509121                       # average overall mshr miss latency
system.l2cache.replacements                         0                       # number of replacements
system.l2cache.WritebackDirty_hits::.writebacks           41                       # number of WritebackDirty hits
system.l2cache.WritebackDirty_hits::total           41                       # number of WritebackDirty hits
system.l2cache.WritebackDirty_accesses::.writebacks           41                       # number of WritebackDirty accesses(hits+misses)
system.l2cache.WritebackDirty_accesses::total           41                       # number of WritebackDirty accesses(hits+misses)
system.l2cache.ReadExReq_hits::.cpu.data           29                       # number of ReadExReq hits
system.l2cache.ReadExReq_hits::total               29                       # number of ReadExReq hits
system.l2cache.ReadExReq_misses::.cpu.data          253                       # number of ReadExReq misses
system.l2cache.ReadExReq_misses::total            253                       # number of ReadExReq misses
system.l2cache.ReadExReq_miss_latency::.cpu.data     57508000                       # number of ReadExReq miss cycles
system.l2cache.ReadExReq_miss_latency::total     57508000                       # number of ReadExReq miss cycles
system.l2cache.ReadExReq_accesses::.cpu.data          282                       # number of ReadExReq accesses(hits+misses)
system.l2cache.ReadExReq_accesses::total          282                       # number of ReadExReq accesses(hits+misses)
system.l2cache.ReadExReq_miss_rate::.cpu.data     0.897163                       # miss rate for ReadExReq accesses
system.l2cache.ReadExReq_miss_rate::total     0.897163                       # miss rate for ReadExReq accesses
system.l2cache.ReadExReq_avg_miss_latency::.cpu.data 227304.347826                       # average ReadExReq miss latency
system.l2cache.ReadExReq_avg_miss_latency::total 227304.347826                       # average ReadExReq miss latency
system.l2cache.ReadExReq_mshr_misses::.cpu.data          253                       # number of ReadExReq MSHR misses
system.l2cache.ReadExReq_mshr_misses::total          253                       # number of ReadExReq MSHR misses
system.l2cache.ReadExReq_mshr_miss_latency::.cpu.data     52448000                       # number of ReadExReq MSHR miss cycles
system.l2cache.ReadExReq_mshr_miss_latency::total     52448000                       # number of ReadExReq MSHR miss cycles
system.l2cache.ReadExReq_mshr_miss_rate::.cpu.data     0.897163                       # mshr miss rate for ReadExReq accesses
system.l2cache.ReadExReq_mshr_miss_rate::total     0.897163                       # mshr miss rate for ReadExReq accesses
system.l2cache.ReadExReq_avg_mshr_miss_latency::.cpu.data 207304.347826                       # average ReadExReq mshr miss latency
system.l2cache.ReadExReq_avg_mshr_miss_latency::total 207304.347826                       # average ReadExReq mshr miss latency
system.l2cache.ReadSharedReq_hits::.cpu.inst        14129                       # number of ReadSharedReq hits
system.l2cache.ReadSharedReq_hits::.cpu.data           41                       # number of ReadSharedReq hits
system.l2cache.ReadSharedReq_hits::total        14170                       # number of ReadSharedReq hits
system.l2cache.ReadSharedReq_misses::.cpu.inst          761                       # number of ReadSharedReq misses
system.l2cache.ReadSharedReq_misses::.cpu.data          192                       # number of ReadSharedReq misses
system.l2cache.ReadSharedReq_misses::total          953                       # number of ReadSharedReq misses
system.l2cache.ReadSharedReq_miss_latency::.cpu.inst     68087000                       # number of ReadSharedReq miss cycles
system.l2cache.ReadSharedReq_miss_latency::.cpu.data     17957000                       # number of ReadSharedReq miss cycles
system.l2cache.ReadSharedReq_miss_latency::total     86044000                       # number of ReadSharedReq miss cycles
system.l2cache.ReadSharedReq_accesses::.cpu.inst        14890                       # number of ReadSharedReq accesses(hits+misses)
system.l2cache.ReadSharedReq_accesses::.cpu.data          233                       # number of ReadSharedReq accesses(hits+misses)
system.l2cache.ReadSharedReq_accesses::total        15123                       # number of ReadSharedReq accesses(hits+misses)
system.l2cache.ReadSharedReq_miss_rate::.cpu.inst     0.051108                       # miss rate for ReadSharedReq accesses
system.l2cache.ReadSharedReq_miss_rate::.cpu.data     0.824034                       # miss rate for ReadSharedReq accesses
system.l2cache.ReadSharedReq_miss_rate::total     0.063017                       # miss rate for ReadSharedReq accesses
system.l2cache.ReadSharedReq_avg_miss_latency::.cpu.inst 89470.433640                       # average ReadSharedReq miss latency
system.l2cache.ReadSharedReq_avg_miss_latency::.cpu.data 93526.041667                       # average ReadSharedReq miss latency
system.l2cache.ReadSharedReq_avg_miss_latency::total 90287.513116                       # average ReadSharedReq miss latency
system.l2cache.ReadSharedReq_mshr_misses::.cpu.inst          761                       # number of ReadSharedReq MSHR misses
system.l2cache.ReadSharedReq_mshr_misses::.cpu.data          192                       # number of ReadSharedReq MSHR misses
system.l2cache.ReadSharedReq_mshr_misses::total          953                       # number of ReadSharedReq MSHR misses
system.l2cache.ReadSharedReq_mshr_miss_latency::.cpu.inst     52867000                       # number of ReadSharedReq MSHR miss cycles
system.l2cache.ReadSharedReq_mshr_miss_latency::.cpu.data     14117000                       # number of ReadSharedReq MSHR miss cycles
system.l2cache.ReadSharedReq_mshr_miss_latency::total     66984000                       # number of ReadSharedReq MSHR miss cycles
system.l2cache.ReadSharedReq_mshr_miss_rate::.cpu.inst     0.051108                       # mshr miss rate for ReadSharedReq accesses
system.l2cache.ReadSharedReq_mshr_miss_rate::.cpu.data     0.824034                       # mshr miss rate for ReadSharedReq accesses
system.l2cache.ReadSharedReq_mshr_miss_rate::total     0.063017                       # mshr miss rate for ReadSharedReq accesses
system.l2cache.ReadSharedReq_avg_mshr_miss_latency::.cpu.inst 69470.433640                       # average ReadSharedReq mshr miss latency
system.l2cache.ReadSharedReq_avg_mshr_miss_latency::.cpu.data 73526.041667                       # average ReadSharedReq mshr miss latency
system.l2cache.ReadSharedReq_avg_mshr_miss_latency::total 70287.513116                       # average ReadSharedReq mshr miss latency
system.l2cache.power_state.pwrStateResidencyTicks::UNDEFINED  11198281000                       # Cumulative time (in ticks) in various power states
system.l2cache.tags.tagsinuse             1076.578532                       # Cycle average of tags in use
system.l2cache.tags.total_refs                  30138                       # Total number of references to valid blocks.
system.l2cache.tags.sampled_refs                 1206                       # Sample count of references to valid blocks.
system.l2cache.tags.avg_refs                24.990050                       # Average number of references to valid blocks.
system.l2cache.tags.warmup_cycle                72000                       # Cycle when the warmup percentage was hit.
system.l2cache.tags.occ_blocks::.cpu.inst   680.647353                       # Average occupied blocks per requestor
system.l2cache.tags.occ_blocks::.cpu.data   395.931178                       # Average occupied blocks per requestor
system.l2cache.tags.occ_percent::.cpu.inst     0.166174                       # Average percentage of cache occupancy
system.l2cache.tags.occ_percent::.cpu.data     0.096663                       # Average percentage of cache occupancy
system.l2cache.tags.occ_percent::total       0.262837                       # Average percentage of cache occupancy
system.l2cache.tags.occ_task_id_blocks::1024         1206                       # Occupied blocks per task id
system.l2cache.tags.age_task_id_blocks_1024::0           62                       # Occupied blocks per task id
system.l2cache.tags.age_task_id_blocks_1024::3          104                       # Occupied blocks per task id
system.l2cache.tags.age_task_id_blocks_1024::4         1040                       # Occupied blocks per task id
system.l2cache.tags.occ_task_id_percent::1024     0.294434                       # Percentage of cache occupancy per task id
system.l2cache.tags.tag_accesses               242310                       # Number of tag accesses
system.l2cache.tags.data_accesses              242310                       # Number of data accesses
system.l2cache.tags.power_state.pwrStateResidencyTicks::UNDEFINED  11198281000                       # Cumulative time (in ticks) in various power states
system.mem_ctrl.avgPriority_.cpu.inst::samples       761.00                       # Average QoS priority value for accepted requests
system.mem_ctrl.avgPriority_.cpu.data::samples       287.00                       # Average QoS priority value for accepted requests
system.mem_ctrl.priorityMinLatency       0.000000017492                       # per QoS priority minimum request to response latency (s)
system.mem_ctrl.priorityMaxLatency       0.000000019952                       # per QoS priority maximum request to response latency (s)
system.mem_ctrl.numReadWriteTurnArounds             0                       # Number of turnarounds from READ to WRITE
system.mem_ctrl.numWriteReadTurnArounds             0                       # Number of turnarounds from WRITE to READ
system.mem_ctrl.numStayReadState                 3144                       # Number of times bus staying in READ state
system.mem_ctrl.numStayWriteState                   0                       # Number of times bus staying in WRITE state
system.mem_ctrl.readReqs                         1048                       # Number of read requests accepted
system.mem_ctrl.writeReqs                           0                       # Number of write requests accepted
system.mem_ctrl.readBursts                       1048                       # Number of controller read bursts, including those serviced by the write queue
system.mem_ctrl.writeBursts                         0                       # Number of controller write bursts, including those merged in the write queue
system.mem_ctrl.servicedByWrQ                       0                       # Number of controller read bursts serviced by the write queue
system.mem_ctrl.mergedWrBursts                      0                       # Number of controller write bursts merged with an existing one
system.mem_ctrl.neitherReadNorWriteReqs             0                       # Number of requests that are neither read nor write
system.mem_ctrl.avgRdQLen                        1.00                       # Average read queue length when enqueuing
system.mem_ctrl.avgWrQLen                        0.00                       # Average write queue length when enqueuing
system.mem_ctrl.numRdRetry                          0                       # Number of times read queue was full causing retry
system.mem_ctrl.numWrRetry                          0                       # Number of times write queue was full causing retry
system.mem_ctrl.readPktSize::0                      0                       # Read request sizes (log2)
system.mem_ctrl.readPktSize::1                      0                       # Read request sizes (log2)
system.mem_ctrl.readPktSize::2                      0                       # Read request sizes (log2)
system.mem_ctrl.readPktSize::3                      0                       # Read request sizes (log2)
system.mem_ctrl.readPktSize::4                      0                       # Read request sizes (log2)
system.mem_ctrl.readPktSize::5                      0                       # Read request sizes (log2)
system.mem_ctrl.readPktSize::6                   1048                       # Read request sizes (log2)
system.mem_ctrl.writePktSize::0                     0                       # Write request sizes (log2)
system.mem_ctrl.writePktSize::1                     0                       # Write request sizes (log2)
system.mem_ctrl.writePktSize::2                     0                       # Write request sizes (log2)
system.mem_ctrl.writePktSize::3                     0                       # Write request sizes (log2)
system.mem_ctrl.writePktSize::4                     0                       # Write request sizes (log2)
system.mem_ctrl.writePktSize::5                     0                       # Write request sizes (log2)
system.mem_ctrl.writePktSize::6                     0                       # Write request sizes (log2)
system.mem_ctrl.rdQLenPdf::0                     1048                       # What read queue length does an incoming req see
system.mem_ctrl.rdQLenPdf::1                        0                       # What read queue length does an incoming req see
system.mem_ctrl.rdQLenPdf::2                        0                       # What read queue length does an incoming req see
system.mem_ctrl.rdQLenPdf::3                        0                       # What read queue length does an incoming req see
system.mem_ctrl.rdQLenPdf::4                        0                       # What read queue length does an incoming req see
system.mem_ctrl.rdQLenPdf::5                        0                       # What read queue length does an incoming req see
system.mem_ctrl.rdQLenPdf::6                        0                       # What read queue length does an incoming req see
system.mem_ctrl.rdQLenPdf::7                        0                       # What read queue length does an incoming req see
system.mem_ctrl.rdQLenPdf::8                        0                       # What read queue length does an incoming req see
system.mem_ctrl.rdQLenPdf::9                        0                       # What read queue length does an incoming req see
system.mem_ctrl.rdQLenPdf::10                       0                       # What read queue length does an incoming req see
system.mem_ctrl.rdQLenPdf::11                       0                       # What read queue length does an incoming req see
system.mem_ctrl.rdQLenPdf::12                       0                       # What read queue length does an incoming req see
system.mem_ctrl.rdQLenPdf::13                       0                       # What read queue length does an incoming req see
system.mem_ctrl.rdQLenPdf::14                       0                       # What read queue length does an incoming req see
system.mem_ctrl.rdQLenPdf::15                       0                       # What read queue length does an incoming req see
system.mem_ctrl.rdQLenPdf::16                       0                       # What read queue length does an incoming req see
system.mem_ctrl.rdQLenPdf::17                       0                       # What read queue length does an incoming req see
system.mem_ctrl.rdQLenPdf::18                       0                       # What read queue length does an incoming req see
system.mem_ctrl.rdQLenPdf::19                       0                       # What read queue length does an incoming req see
system.mem_ctrl.rdQLenPdf::20                       0                       # What read queue length does an incoming req see
system.mem_ctrl.rdQLenPdf::21                       0                       # What read queue length does an incoming req see
system.mem_ctrl.rdQLenPdf::22                       0                       # What read queue length does an incoming req see
system.mem_ctrl.rdQLenPdf::23                       0                       # What read queue length does an incoming req see
system.mem_ctrl.rdQLenPdf::24                       0                       # What read queue length does an incoming req see
system.mem_ctrl.rdQLenPdf::25                       0                       # What read queue length does an incoming req see
system.mem_ctrl.rdQLenPdf::26                       0                       # What read queue length does an incoming req see
system.mem_ctrl.rdQLenPdf::27                       0                       # What read queue length does an incoming req see
system.mem_ctrl.rdQLenPdf::28                       0                       # What read queue length does an incoming req see
system.mem_ctrl.rdQLenPdf::29                       0                       # What read queue length does an incoming req see
system.mem_ctrl.rdQLenPdf::30                       0                       # What read queue length does an incoming req see
system.mem_ctrl.rdQLenPdf::31                       0                       # What read queue length does an incoming req see
system.mem_ctrl.rdQLenPdf::32                       0                       # What read queue length does an incoming req see
system.mem_ctrl.rdQLenPdf::33                       0                       # What read queue length does an incoming req see
system.mem_ctrl.rdQLenPdf::34                       0                       # What read queue length does an incoming req see
system.mem_ctrl.rdQLenPdf::35                       0                       # What read queue length does an incoming req see
system.mem_ctrl.rdQLenPdf::36                       0                       # What read queue length does an incoming req see
system.mem_ctrl.rdQLenPdf::37                       0                       # What read queue length does an incoming req see
system.mem_ctrl.rdQLenPdf::38                       0                       # What read queue length does an incoming req see
system.mem_ctrl.rdQLenPdf::39                       0                       # What read queue length does an incoming req see
system.mem_ctrl.rdQLenPdf::40                       0                       # What read queue length does an incoming req see
system.mem_ctrl.rdQLenPdf::41                       0                       # What read queue length does an incoming req see
system.mem_ctrl.rdQLenPdf::42                       0                       # What read queue length does an incoming req see
system.mem_ctrl.rdQLenPdf::43                       0                       # What read queue length does an incoming req see
system.mem_ctrl.rdQLenPdf::44                       0                       # What read queue length does an incoming req see
system.mem_ctrl.rdQLenPdf::45                       0                       # What read queue length does an incoming req see
system.mem_ctrl.rdQLenPdf::46                       0                       # What read queue length does an incoming req see
system.mem_ctrl.rdQLenPdf::47                       0                       # What read queue length does an incoming req see
system.mem_ctrl.rdQLenPdf::48                       0                       # What read queue length does an incoming req see
system.mem_ctrl.rdQLenPdf::49                       0                       # What read queue length does an incoming req see
system.mem_ctrl.rdQLenPdf::50                       0                       # What read queue length does an incoming req see
system.mem_ctrl.rdQLenPdf::51                       0                       # What read queue length does an incoming req see
system.mem_ctrl.rdQLenPdf::52                       0                       # What read queue length does an incoming req see
system.mem_ctrl.rdQLenPdf::53                       0                       # What read queue length does an incoming req see
system.mem_ctrl.rdQLenPdf::54                       0                       # What read queue length does an incoming req see
system.mem_ctrl.rdQLenPdf::55                       0                       # What read queue length does an incoming req see
system.mem_ctrl.rdQLenPdf::56                       0                       # What read queue length does an incoming req see
system.mem_ctrl.rdQLenPdf::57                       0                       # What read queue length does an incoming req see
system.mem_ctrl.rdQLenPdf::58                       0                       # What read queue length does an incoming req see
system.mem_ctrl.rdQLenPdf::59                       0                       # What read queue length does an incoming req see
system.mem_ctrl.rdQLenPdf::60                       0                       # What read queue length does an incoming req see
system.mem_ctrl.rdQLenPdf::61                       0                       # What read queue length does an incoming req see
system.mem_ctrl.rdQLenPdf::62                       0                       # What read queue length does an incoming req see
system.mem_ctrl.rdQLenPdf::63                       0                       # What read queue length does an incoming req see
system.mem_ctrl.wrQLenPdf::0                        0                       # What write queue length does an incoming req see
system.mem_ctrl.wrQLenPdf::1                        0                       # What write queue length does an incoming req see
system.mem_ctrl.wrQLenPdf::2                        0                       # What write queue length does an incoming req see
system.mem_ctrl.wrQLenPdf::3                        0                       # What write queue length does an incoming req see
system.mem_ctrl.wrQLenPdf::4                        0                       # What write queue length does an incoming req see
system.mem_ctrl.wrQLenPdf::5                        0                       # What write queue length does an incoming req see
system.mem_ctrl.wrQLenPdf::6                        0                       # What write queue length does an incoming req see
system.mem_ctrl.wrQLenPdf::7                        0                       # What write queue length does an incoming req see
system.mem_ctrl.wrQLenPdf::8                        0                       # What write queue length does an incoming req see
system.mem_ctrl.wrQLenPdf::9                        0                       # What write queue length does an incoming req see
system.mem_ctrl.wrQLenPdf::10                       0                       # What write queue length does an incoming req see
system.mem_ctrl.wrQLenPdf::11                       0                       # What write queue length does an incoming req see
system.mem_ctrl.wrQLenPdf::12                       0                       # What write queue length does an incoming req see
system.mem_ctrl.wrQLenPdf::13                       0                       # What write queue length does an incoming req see
system.mem_ctrl.wrQLenPdf::14                       0                       # What write queue length does an incoming req see
system.mem_ctrl.wrQLenPdf::15                       0                       # What write queue length does an incoming req see
system.mem_ctrl.wrQLenPdf::16                       0                       # What write queue length does an incoming req see
system.mem_ctrl.wrQLenPdf::17                       0                       # What write queue length does an incoming req see
system.mem_ctrl.wrQLenPdf::18                       0                       # What write queue length does an incoming req see
system.mem_ctrl.wrQLenPdf::19                       0                       # What write queue length does an incoming req see
system.mem_ctrl.wrQLenPdf::20                       0                       # What write queue length does an incoming req see
system.mem_ctrl.wrQLenPdf::21                       0                       # What write queue length does an incoming req see
system.mem_ctrl.wrQLenPdf::22                       0                       # What write queue length does an incoming req see
system.mem_ctrl.wrQLenPdf::23                       0                       # What write queue length does an incoming req see
system.mem_ctrl.wrQLenPdf::24                       0                       # What write queue length does an incoming req see
system.mem_ctrl.wrQLenPdf::25                       0                       # What write queue length does an incoming req see
system.mem_ctrl.wrQLenPdf::26                       0                       # What write queue length does an incoming req see
system.mem_ctrl.wrQLenPdf::27                       0                       # What write queue length does an incoming req see
system.mem_ctrl.wrQLenPdf::28                       0                       # What write queue length does an incoming req see
system.mem_ctrl.wrQLenPdf::29                       0                       # What write queue length does an incoming req see
system.mem_ctrl.wrQLenPdf::30                       0                       # What write queue length does an incoming req see
system.mem_ctrl.wrQLenPdf::31                       0                       # What write queue length does an incoming req see
system.mem_ctrl.wrQLenPdf::32                       0                       # What write queue length does an incoming req see
system.mem_ctrl.wrQLenPdf::33                       0                       # What write queue length does an incoming req see
system.mem_ctrl.wrQLenPdf::34                       0                       # What write queue length does an incoming req see
system.mem_ctrl.wrQLenPdf::35                       0                       # What write queue length does an incoming req see
system.mem_ctrl.wrQLenPdf::36                       0                       # What write queue length does an incoming req see
system.mem_ctrl.wrQLenPdf::37                       0                       # What write queue length does an incoming req see
system.mem_ctrl.wrQLenPdf::38                       0                       # What write queue length does an incoming req see
system.mem_ctrl.wrQLenPdf::39                       0                       # What write queue length does an incoming req see
system.mem_ctrl.wrQLenPdf::40                       0                       # What write queue length does an incoming req see
system.mem_ctrl.wrQLenPdf::41                       0                       # What write queue length does an incoming req see
system.mem_ctrl.wrQLenPdf::42                       0                       # What write queue length does an incoming req see
system.mem_ctrl.wrQLenPdf::43                       0                       # What write queue length does an incoming req see
system.mem_ctrl.wrQLenPdf::44                       0                       # What write queue length does an incoming req see
system.mem_ctrl.wrQLenPdf::45                       0                       # What write queue length does an incoming req see
system.mem_ctrl.wrQLenPdf::46                       0                       # What write queue length does an incoming req see
system.mem_ctrl.wrQLenPdf::47                       0                       # What write queue length does an incoming req see
system.mem_ctrl.wrQLenPdf::48                       0                       # What write queue length does an incoming req see
system.mem_ctrl.wrQLenPdf::49                       0                       # What write queue length does an incoming req see
system.mem_ctrl.wrQLenPdf::50                       0                       # What write queue length does an incoming req see
system.mem_ctrl.wrQLenPdf::51                       0                       # What write queue length does an incoming req see
system.mem_ctrl.wrQLenPdf::52                       0                       # What write queue length does an incoming req see
system.mem_ctrl.wrQLenPdf::53                       0                       # What write queue length does an incoming req see
system.mem_ctrl.wrQLenPdf::54                       0                       # What write queue length does an incoming req see
system.mem_ctrl.wrQLenPdf::55                       0                       # What write queue length does an incoming req see
system.mem_ctrl.wrQLenPdf::56                       0                       # What write queue length does an incoming req see
system.mem_ctrl.wrQLenPdf::57                       0                       # What write queue length does an incoming req see
system.mem_ctrl.wrQLenPdf::58                       0                       # What write queue length does an incoming req see
system.mem_ctrl.wrQLenPdf::59                       0                       # What write queue length does an incoming req see
system.mem_ctrl.wrQLenPdf::60                       0                       # What write queue length does an incoming req see
system.mem_ctrl.wrQLenPdf::61                       0                       # What write queue length does an incoming req see
system.mem_ctrl.wrQLenPdf::62                       0                       # What write queue length does an incoming req see
system.mem_ctrl.wrQLenPdf::63                       0                       # What write queue length does an incoming req see
system.mem_ctrl.wrQLenPdf::64                       0                       # What write queue length does an incoming req see
system.mem_ctrl.wrQLenPdf::65                       0                       # What write queue length does an incoming req see
system.mem_ctrl.wrQLenPdf::66                       0                       # What write queue length does an incoming req see
system.mem_ctrl.wrQLenPdf::67                       0                       # What write queue length does an incoming req see
system.mem_ctrl.wrQLenPdf::68                       0                       # What write queue length does an incoming req see
system.mem_ctrl.wrQLenPdf::69                       0                       # What write queue length does an incoming req see
system.mem_ctrl.wrQLenPdf::70                       0                       # What write queue length does an incoming req see
system.mem_ctrl.wrQLenPdf::71                       0                       # What write queue length does an incoming req see
system.mem_ctrl.wrQLenPdf::72                       0                       # What write queue length does an incoming req see
system.mem_ctrl.wrQLenPdf::73                       0                       # What write queue length does an incoming req see
system.mem_ctrl.wrQLenPdf::74                       0                       # What write queue length does an incoming req see
system.mem_ctrl.wrQLenPdf::75                       0                       # What write queue length does an incoming req see
system.mem_ctrl.wrQLenPdf::76                       0                       # What write queue length does an incoming req see
system.mem_ctrl.wrQLenPdf::77                       0                       # What write queue length does an incoming req see
system.mem_ctrl.wrQLenPdf::78                       0                       # What write queue length does an incoming req see
system.mem_ctrl.wrQLenPdf::79                       0                       # What write queue length does an incoming req see
system.mem_ctrl.wrQLenPdf::80                       0                       # What write queue length does an incoming req see
system.mem_ctrl.wrQLenPdf::81                       0                       # What write queue length does an incoming req see
[...]
system.nvm_ctrl.wrQLenPdf::45                       0                       # What write queue length does an incoming req see
system.nvm_ctrl.wrQLenPdf::46                       0                       # What write queue length does an incoming req see
system.nvm_ctrl.wrQLenPdf::47                       0                       # What write queue length does an incoming req see
system.nvm_ctrl.wrQLenPdf::48                       0                       # What write queue length does an incoming req see
system.nvm_ctrl.wrQLenPdf::49                       0                       # What write queue length does an incoming req see
system.nvm_ctrl.wrQLenPdf::50                       0                       # What write queue length does an incoming req see
system.nvm_ctrl.wrQLenPdf::51                       0                       # What write queue length does an incoming req see
system.nvm_ctrl.wrQLenPdf::52                       0                       # What write queue length does an incoming req see
system.nvm_ctrl.wrQLenPdf::53                       0                       # What write queue length does an incoming req see
system.nvm_ctrl.wrQLenPdf::54                       0                       # What write queue length does an incoming req see
system.nvm_ctrl.wrQLenPdf::55                       0                       # What write queue length does an incoming req see
system.nvm_ctrl.wrQLenPdf::56                       0                       # What write queue length does an incoming req see
system.nvm_ctrl.wrQLenPdf::57                       0                       # What write queue length does an incoming req see
system.nvm_ctrl.wrQLenPdf::58                       0                       # What write queue length does an incoming req see
system.nvm_ctrl.wrQLenPdf::59                       0                       # What write queue length does an incoming req see
system.nvm_ctrl.wrQLenPdf::60                       0                       # What write queue length does an incoming req see
system.nvm_ctrl.wrQLenPdf::61                       0                       # What write queue length does an incoming req see
system.nvm_ctrl.wrQLenPdf::62                       0                       # What write queue length does an incoming req see
system.nvm_ctrl.wrQLenPdf::63                       0                       # What write queue length does an incoming req see
system.nvm_ctrl.wrQLenPdf::64                       0                       # What write queue length does an incoming req see
system.nvm_ctrl.wrQLenPdf::65                       0                       # What write queue length does an incoming req see
system.nvm_ctrl.wrQLenPdf::66                       0                       # What write queue length does an incoming req see
system.nvm_ctrl.wrQLenPdf::67                       0                       # What write queue length does an incoming req see
system.nvm_ctrl.wrQLenPdf::68                       0                       # What write queue length does an incoming req see
system.nvm_ctrl.wrQLenPdf::69                       0                       # What write queue length does an incoming req see
system.nvm_ctrl.wrQLenPdf::70                       0                       # What write queue length does an incoming req see
system.nvm_ctrl.wrQLenPdf::71                       0                       # What write queue length does an incoming req see
system.nvm_ctrl.wrQLenPdf::72                       0                       # What write queue length does an incoming req see
system.nvm_ctrl.wrQLenPdf::73                       0                       # What write queue length does an incoming req see
system.nvm_ctrl.wrQLenPdf::74                       0                       # What write queue length does an incoming req see
system.nvm_ctrl.wrQLenPdf::75                       0                       # What write queue length does an incoming req see
system.nvm_ctrl.wrQLenPdf::76                       0                       # What write queue length does an incoming req see
system.nvm_ctrl.wrQLenPdf::77                       0                       # What write queue length does an incoming req see
system.nvm_ctrl.wrQLenPdf::78                       0                       # What write queue length does an incoming req see
system.nvm_ctrl.wrQLenPdf::79                       0                       # What write queue length does an incoming req see
system.nvm_ctrl.wrQLenPdf::80                       0                       # What write queue length does an incoming req see
system.nvm_ctrl.wrQLenPdf::81                       0                       # What write queue length does an incoming req see
system.nvm_ctrl.wrQLenPdf::82                       0                       # What write queue length does an incoming req see
system.nvm_ctrl.wrQLenPdf::83                       0                       # What write queue length does an incoming req see
system.nvm_ctrl.wrQLenPdf::84                       0                       # What write queue length does an incoming req see
system.nvm_ctrl.wrQLenPdf::85                       0                       # What write queue length does an incoming req see
system.nvm_ctrl.wrQLenPdf::86                       0                       # What write queue length does an incoming req see
system.nvm_ctrl.wrQLenPdf::87                       0                       # What write queue length does an incoming req see
system.nvm_ctrl.wrQLenPdf::88                       0                       # What write queue length does an incoming req see
system.nvm_ctrl.wrQLenPdf::89                       0                       # What write queue length does an incoming req see
system.nvm_ctrl.wrQLenPdf::90                       0                       # What write queue length does an incoming req see
system.nvm_ctrl.wrQLenPdf::91                       0                       # What write queue length does an incoming req see
system.nvm_ctrl.wrQLenPdf::92                       0                       # What write queue length does an incoming req see
system.nvm_ctrl.wrQLenPdf::93                       0                       # What write queue length does an incoming req see
system.nvm_ctrl.wrQLenPdf::94                       0                       # What write queue length does an incoming req see
system.nvm_ctrl.wrQLenPdf::95                       0                       # What write queue length does an incoming req see
system.nvm_ctrl.wrQLenPdf::96                       0                       # What write queue length does an incoming req see
system.nvm_ctrl.wrQLenPdf::97                       0                       # What write queue length does an incoming req see
system.nvm_ctrl.wrQLenPdf::98                       0                       # What write queue length does an incoming req see
system.nvm_ctrl.wrQLenPdf::99                       0                       # What write queue length does an incoming req see
system.nvm_ctrl.wrQLenPdf::100                      0                       # What write queue length does an incoming req see
system.nvm_ctrl.wrQLenPdf::101                      0                       # What write queue length does an incoming req see
system.nvm_ctrl.wrQLenPdf::102                      0                       # What write queue length does an incoming req see
system.nvm_ctrl.wrQLenPdf::103                      0                       # What write queue length does an incoming req see
system.nvm_ctrl.wrQLenPdf::104                      0                       # What write queue length does an incoming req see
system.nvm_ctrl.wrQLenPdf::105                      0                       # What write queue length does an incoming req see
system.nvm_ctrl.wrQLenPdf::106                      0                       # What write queue length does an incoming req see
system.nvm_ctrl.wrQLenPdf::107                      0                       # What write queue length does an incoming req see
system.nvm_ctrl.wrQLenPdf::108                      0                       # What write queue length does an incoming req see
system.nvm_ctrl.wrQLenPdf::109                      0                       # What write queue length does an incoming req see
system.nvm_ctrl.wrQLenPdf::110                      0                       # What write queue length does an incoming req see
system.nvm_ctrl.wrQLenPdf::111                      0                       # What write queue length does an incoming req see
system.nvm_ctrl.wrQLenPdf::112                      0                       # What write queue length does an incoming req see
system.nvm_ctrl.wrQLenPdf::113                      0                       # What write queue length does an incoming req see
system.nvm_ctrl.wrQLenPdf::114                      0                       # What write queue length does an incoming req see
system.nvm_ctrl.wrQLenPdf::115                      0                       # What write queue length does an incoming req see
system.nvm_ctrl.wrQLenPdf::116                      0                       # What write queue length does an incoming req see
system.nvm_ctrl.wrQLenPdf::117                      0                       # What write queue length does an incoming req see
system.nvm_ctrl.wrQLenPdf::118                      0                       # What write queue length does an incoming req see
system.nvm_ctrl.wrQLenPdf::119                      0                       # What write queue length does an incoming req see
system.nvm_ctrl.wrQLenPdf::120                      0                       # What write queue length does an incoming req see
system.nvm_ctrl.wrQLenPdf::121                      0                       # What write queue length does an incoming req see
system.nvm_ctrl.wrQLenPdf::122                      0                       # What write queue length does an incoming req see
system.nvm_ctrl.wrQLenPdf::123                      0                       # What write queue length does an incoming req see
system.nvm_ctrl.wrQLenPdf::124                      0                       # What write queue length does an incoming req see
system.nvm_ctrl.wrQLenPdf::125                      0                       # What write queue length does an incoming req see
system.nvm_ctrl.wrQLenPdf::126                      0                       # What write queue length does an incoming req see
system.nvm_ctrl.wrQLenPdf::127                      0                       # What write queue length does an incoming req see
system.nvm_ctrl.bytesReadWrQ                        0                       # Total number of bytes read from write queue
system.nvm_ctrl.bytesReadSys                    10112                       # Total read bytes from the system interface side
system.nvm_ctrl.bytesWrittenSys                     0                       # Total written bytes from the system interface side
system.nvm_ctrl.avgRdBWSys                       0.90                       # Average system read bandwidth in MiByte/s
system.nvm_ctrl.avgWrBWSys                       0.00                       # Average system write bandwidth in MiByte/s
system.nvm_ctrl.totGap                     8512131000                       # Total gap between requests
system.nvm_ctrl.avgGap                    53874246.84                       # Average gap between requests
system.nvm_ctrl.requestorReadBytes::.cpu.data        10112                       # Per-requestor bytes read from memory
system.nvm_ctrl.requestorReadRate::.cpu.data 902995.736577783711                       # Per-requestor bytes read from memory rate (Bytes/sec)
system.nvm_ctrl.requestorReadAccesses::.cpu.data          158                       # Per-requestor read serviced memory accesses
system.nvm_ctrl.requestorReadTotalLat::.cpu.data     38475736                       # Per-requestor read total memory access latency
system.nvm_ctrl.requestorReadAvgLat::.cpu.data    243517.32                       # Per-requestor read average memory access latency
system.nvm_ctrl.nvm.bytes_read::.cpu.data        10112                       # Number of bytes read from this memory
system.nvm_ctrl.nvm.bytes_read::total           10112                       # Number of bytes read from this memory
system.nvm_ctrl.nvm.num_reads::.cpu.data          158                       # Number of read requests responded to by this memory
system.nvm_ctrl.nvm.num_reads::total              158                       # Number of read requests responded to by this memory
system.nvm_ctrl.nvm.bw_read::.cpu.data         902996                       # Total read bandwidth from this memory (bytes/s)
system.nvm_ctrl.nvm.bw_read::total             902996                       # Total read bandwidth from this memory (bytes/s)
system.nvm_ctrl.nvm.bw_total::.cpu.data        902996                       # Total bandwidth to/from this memory (bytes/s)
system.nvm_ctrl.nvm.bw_total::total            902996                       # Total bandwidth to/from this memory (bytes/s)
system.nvm_ctrl.nvm.readBursts                    158                       # Number of NVM read bursts
system.nvm_ctrl.nvm.writeBursts                     0                       # Number of NVM write bursts
system.nvm_ctrl.nvm.perBankRdBursts::0             22                       # Per bank write bursts
system.nvm_ctrl.nvm.perBankRdBursts::1             21                       # Per bank write bursts
system.nvm_ctrl.nvm.perBankRdBursts::2             24                       # Per bank write bursts
system.nvm_ctrl.nvm.perBankRdBursts::3             24                       # Per bank write bursts
system.nvm_ctrl.nvm.perBankRdBursts::4              8                       # Per bank write bursts
system.nvm_ctrl.nvm.perBankRdBursts::5              8                       # Per bank write bursts
system.nvm_ctrl.nvm.perBankRdBursts::6              7                       # Per bank write bursts
system.nvm_ctrl.nvm.perBankRdBursts::7              4                       # Per bank write bursts
system.nvm_ctrl.nvm.perBankRdBursts::8              8                       # Per bank write bursts
system.nvm_ctrl.nvm.perBankRdBursts::9              4                       # Per bank write bursts
system.nvm_ctrl.nvm.perBankRdBursts::10             4                       # Per bank write bursts
system.nvm_ctrl.nvm.perBankRdBursts::11             7                       # Per bank write bursts
system.nvm_ctrl.nvm.perBankRdBursts::12             4                       # Per bank write bursts
system.nvm_ctrl.nvm.perBankRdBursts::13             4                       # Per bank write bursts
system.nvm_ctrl.nvm.perBankRdBursts::14             4                       # Per bank write bursts
system.nvm_ctrl.nvm.perBankRdBursts::15             5                       # Per bank write bursts
system.nvm_ctrl.nvm.perBankWrBursts::0              0                       # Per bank write bursts
system.nvm_ctrl.nvm.perBankWrBursts::1              0                       # Per bank write bursts
system.nvm_ctrl.nvm.perBankWrBursts::2              0                       # Per bank write bursts
system.nvm_ctrl.nvm.perBankWrBursts::3              0                       # Per bank write bursts
system.nvm_ctrl.nvm.perBankWrBursts::4              0                       # Per bank write bursts
system.nvm_ctrl.nvm.perBankWrBursts::5              0                       # Per bank write bursts
system.nvm_ctrl.nvm.perBankWrBursts::6              0                       # Per bank write bursts
system.nvm_ctrl.nvm.perBankWrBursts::7              0                       # Per bank write bursts
system.nvm_ctrl.nvm.perBankWrBursts::8              0                       # Per bank write bursts
system.nvm_ctrl.nvm.perBankWrBursts::9              0                       # Per bank write bursts
system.nvm_ctrl.nvm.perBankWrBursts::10             0                       # Per bank write bursts
system.nvm_ctrl.nvm.perBankWrBursts::11             0                       # Per bank write bursts
system.nvm_ctrl.nvm.perBankWrBursts::12             0                       # Per bank write bursts
system.nvm_ctrl.nvm.perBankWrBursts::13             0                       # Per bank write bursts
system.nvm_ctrl.nvm.perBankWrBursts::14             0                       # Per bank write bursts
system.nvm_ctrl.nvm.perBankWrBursts::15             0                       # Per bank write bursts
system.nvm_ctrl.nvm.totQLat                  35712000                       # Total ticks spent queuing
system.nvm_ctrl.nvm.totBusLat                  526456                       # Total ticks spent in databus transfers
system.nvm_ctrl.nvm.totMemAccLat             38475736                       # Total ticks spent from burst creation until serviced by the NVM
system.nvm_ctrl.nvm.avgQLat                 226025.32                       # Average queueing delay per NVM burst
system.nvm_ctrl.nvm.avgBusLat                 3332.00                       # Average bus latency per NVM burst
system.nvm_ctrl.nvm.avgMemAccLat            243517.32                       # Average memory access latency per NVM burst
system.nvm_ctrl.nvm.bytesRead                   10112                       # Total number of bytes read from DRAM
system.nvm_ctrl.nvm.bytesWritten                    0                       # Total number of bytes written to DRAM
system.nvm_ctrl.nvm.avgRdBW                      0.90                       # Average DRAM read bandwidth in MiBytes/s
system.nvm_ctrl.nvm.avgWrBW                      0.00                       # Average DRAM write bandwidth in MiBytes/s
system.nvm_ctrl.nvm.peakBW                   19207.00                       # Theoretical peak bandwidth in MiByte/s
system.nvm_ctrl.nvm.busUtil                      0.00                       # NVM Data bus utilization in percentage
system.nvm_ctrl.nvm.busUtilRead                  0.00                       # NVM Data bus read utilization in percentage
system.nvm_ctrl.nvm.busUtilWrite                 0.00                       # NVM Data bus write utilization in percentage
system.nvm_ctrl.nvm.pendingReads::samples          158                       # Reads issued to NVM for which data has not been transferred
system.nvm_ctrl.nvm.pendingReads::0               158    100.00%    100.00% # Reads issued to NVM for which data has not been transferred
system.nvm_ctrl.nvm.pendingReads::total           158                       # Reads issued to NVM for which data has not been transferred
system.nvm_ctrl.nvm.bytesPerBank::samples           93                       # Bytes read within a bank before loading new bank
system.nvm_ctrl.nvm.bytesPerBank::mean      78.451613                       # Bytes read within a bank before loading new bank
system.nvm_ctrl.nvm.bytesPerBank::gmean     71.570360                       # Bytes read within a bank before loading new bank
system.nvm_ctrl.nvm.bytesPerBank::stdev     48.235049                       # Bytes read within a bank before loading new bank
system.nvm_ctrl.nvm.bytesPerBank::64-65            84     90.32%     90.32% # Bytes read within a bank before loading new bank
system.nvm_ctrl.nvm.bytesPerBank::128-129            3      3.23%     93.55% # Bytes read within a bank before loading new bank
system.nvm_ctrl.nvm.bytesPerBank::256-257            6      6.45%    100.00% # Bytes read within a bank before loading new bank
system.nvm_ctrl.nvm.bytesPerBank::total            93                       # Bytes read within a bank before loading new bank
system.nvm_ctrl.nvm.power_state.pwrStateResidencyTicks::UNDEFINED  11198281000                       # Cumulative time (in ticks) in various power states
system.nvm_ctrl.power_state.pwrStateResidencyTicks::UNDEFINED  11198281000                       # Cumulative time (in ticks) in various power states

---------- End Simulation Statistics   ----------
