
---------- Begin Simulation Statistics ----------
final_tick                               200436427000                       # Number of ticks from beginning of simulation (restored from checkpoints and never reset)
host_inst_rate                                 947593                       # Simulator instruction rate (inst/s)
host_mem_usage                                1176032                       # Number of bytes of host memory used
host_op_rate                                  1619223                       # Simulator op (including micro ops) rate (op/s)
host_seconds                                    53.68                       # Real time elapsed on the host
host_tick_rate                             3733862901                       # Simulator tick rate (ticks/s)
sim_freq                                 1000000000000                       # Frequency of simulated ticks
sim_insts                                    50867394                       # Number of instructions simulated
sim_ops                                      86921024                       # Number of ops (including micro ops) simulated
sim_seconds                                  0.200436                       # Number of seconds simulated
sim_ticks                                200436427000                       # Number of ticks simulated
system.cpu.Branches                           1999018                       # Number of branches fetched
system.cpu.committedInsts                    50867394                       # Number of instructions committed
system.cpu.committedOps                      86921024                       # Number of ops (including micro ops) committed
system.cpu.idle_fraction                     0.000000                       # Percentage of idle cycles
system.cpu.not_idle_fraction                 1.000000                       # Percentage of non-idle cycles
system.cpu.numCycles                        200436427                       # number of cpu cycles simulated
system.cpu.numWorkItemsCompleted                    0                       # number of work items this cpu completed
system.cpu.numWorkItemsStarted                      0                       # number of work items this cpu started
system.cpu.num_busy_cycles               200436426.999000                       # Number of busy cycles
system.cpu.num_cc_register_reads              9727568                       # number of times the CC registers were read
system.cpu.num_cc_register_writes            24185580                       # number of times the CC registers were written
system.cpu.num_conditional_control_insts      1878489                       # number of instructions that are conditional controls
system.cpu.num_fp_alu_accesses                  63499                       # Number of float alu accesses
system.cpu.num_fp_insts                         63499                       # number of float instructions
system.cpu.num_fp_register_reads                80097                       # number of times the floating registers were read
system.cpu.num_fp_register_writes               54497                       # number of times the floating registers were written
system.cpu.num_func_calls                        3766                       # number of times a function call or return occured
system.cpu.num_idle_cycles                   0.001000                       # Number of idle cycles
system.cpu.num_int_alu_accesses              86871439                       # Number of integer alu accesses
system.cpu.num_int_insts                     86871439                       # number of integer instructions
system.cpu.num_int_register_reads           218538554                       # number of times the integer registers were read
system.cpu.num_int_register_writes           76450163                       # number of times the integer registers were written
system.cpu.num_load_insts                    25487739                       # Number of load instructions
system.cpu.num_mem_refs                      37276395                       # number of memory refs
system.cpu.num_store_insts                   11788656                       # Number of store instructions
system.cpu.num_vec_alu_accesses                     0                       # Number of vector alu accesses
system.cpu.num_vec_insts                            0                       # number of vector instructions
system.cpu.num_vec_register_reads                   0                       # number of times the vector registers were read
system.cpu.num_vec_register_writes                  0                       # number of times the vector registers were written
system.cpu.op_class::No_OpClass                 10152      0.01%      0.01% # Class of executed instruction
system.cpu.op_class::IntAlu                  46269065     53.23%     53.24% # Class of executed instruction
system.cpu.op_class::IntMult                  3274393      3.77%     57.01% # Class of executed instruction
system.cpu.op_class::IntDiv                     50613      0.06%     57.07% # Class of executed instruction
system.cpu.op_class::FloatAdd                   12077      0.01%     57.08% # Class of executed instruction
system.cpu.op_class::FloatCmp                       0      0.00%     57.08% # Class of executed instruction
system.cpu.op_class::FloatCvt                       0      0.00%     57.08% # Class of executed instruction
system.cpu.op_class::FloatMult                      0      0.00%     57.08% # Class of executed instruction
system.cpu.op_class::FloatMultAcc                   0      0.00%     57.08% # Class of executed instruction
system.cpu.op_class::FloatDiv                       0      0.00%     57.08% # Class of executed instruction
system.cpu.op_class::FloatMisc                      0      0.00%     57.08% # Class of executed instruction
system.cpu.op_class::FloatSqrt                      0      0.00%     57.08% # Class of executed instruction
system.cpu.op_class::SimdAdd                        0      0.00%     57.08% # Class of executed instruction
system.cpu.op_class::SimdAddAcc                     0      0.00%     57.08% # Class of executed instruction
system.cpu.op_class::SimdAlu                     2648      0.00%     57.09% # Class of executed instruction
system.cpu.op_class::SimdCmp                        0      0.00%     57.09% # Class of executed instruction
system.cpu.op_class::SimdCvt                       76      0.00%     57.09% # Class of executed instruction
system.cpu.op_class::SimdMisc                    4192      0.00%     57.09% # Class of executed instruction
system.cpu.op_class::SimdMult                       0      0.00%     57.09% # Class of executed instruction
system.cpu.op_class::SimdMultAcc                    0      0.00%     57.09% # Class of executed instruction
system.cpu.op_class::SimdShift                      0      0.00%     57.09% # Class of executed instruction
system.cpu.op_class::SimdShiftAcc                   0      0.00%     57.09% # Class of executed instruction
system.cpu.op_class::SimdDiv                        0      0.00%     57.09% # Class of executed instruction
system.cpu.op_class::SimdSqrt                       0      0.00%     57.09% # Class of executed instruction
system.cpu.op_class::SimdFloatAdd                7362      0.01%     57.10% # Class of executed instruction
system.cpu.op_class::SimdFloatAlu                   0      0.00%     57.10% # Class of executed instruction
system.cpu.op_class::SimdFloatCmp                   0      0.00%     57.10% # Class of executed instruction
system.cpu.op_class::SimdFloatCvt                4721      0.01%     57.10% # Class of executed instruction
system.cpu.op_class::SimdFloatDiv                 738      0.00%     57.10% # Class of executed instruction
system.cpu.op_class::SimdFloatMisc                  0      0.00%     57.10% # Class of executed instruction
system.cpu.op_class::SimdFloatMult               8613      0.01%     57.11% # Class of executed instruction
system.cpu.op_class::SimdFloatMultAcc               0      0.00%     57.11% # Class of executed instruction
system.cpu.op_class::SimdFloatSqrt                  0      0.00%     57.11% # Class of executed instruction
system.cpu.op_class::SimdReduceAdd                  0      0.00%     57.11% # Class of executed instruction
system.cpu.op_class::SimdReduceAlu                  0      0.00%     57.11% # Class of executed instruction
system.cpu.op_class::SimdReduceCmp                  0      0.00%     57.11% # Class of executed instruction
system.cpu.op_class::SimdFloatReduceAdd             0      0.00%     57.11% # Class of executed instruction
system.cpu.op_class::SimdFloatReduceCmp             0      0.00%     57.11% # Class of executed instruction
system.cpu.op_class::SimdAes                        0      0.00%     57.11% # Class of executed instruction
system.cpu.op_class::SimdAesMix                     0      0.00%     57.11% # Class of executed instruction
system.cpu.op_class::SimdSha1Hash                   0      0.00%     57.11% # Class of executed instruction
system.cpu.op_class::SimdSha1Hash2                  0      0.00%     57.11% # Class of executed instruction
system.cpu.op_class::SimdSha256Hash                 0      0.00%     57.11% # Class of executed instruction
system.cpu.op_class::SimdSha256Hash2                0      0.00%     57.11% # Class of executed instruction
system.cpu.op_class::SimdShaSigma2                  0      0.00%     57.11% # Class of executed instruction
system.cpu.op_class::SimdShaSigma3                  0      0.00%     57.11% # Class of executed instruction
system.cpu.op_class::SimdPredAlu                    0      0.00%     57.11% # Class of executed instruction
system.cpu.op_class::MemRead                 25472286     29.31%     86.42% # Class of executed instruction
system.cpu.op_class::MemWrite                11784146     13.56%     99.98% # Class of executed instruction
system.cpu.op_class::FloatMemRead               15453      0.02%     99.99% # Class of executed instruction
system.cpu.op_class::FloatMemWrite               4510      0.01%    100.00% # Class of executed instruction
system.cpu.op_class::IprAccess                      0      0.00%    100.00% # Class of executed instruction
system.cpu.op_class::InstPrefetch                   0      0.00%    100.00% # Class of executed instruction
system.cpu.op_class::total                   86921045                       # Class of executed instruction
system.cpu.workload.numSyscalls                    17                       # Number of system calls
system.l2bus.snoop_filter.hit_multi_requests            0                       # Number of requests hitting in the snoop filter with multiple (>1) holders of the requested data.
system.l2bus.snoop_filter.hit_multi_snoops            0                       # Number of snoops hitting in the snoop filter with multiple (>1) holders of the requested data.
system.l2bus.snoop_filter.hit_single_requests         1069                       # Number of requests hitting in the snoop filter with a single holder of the requested data.
system.l2bus.snoop_filter.hit_single_snoops            0                       # Number of snoops hitting in the snoop filter with a single holder of the requested data.
system.l2bus.snoop_filter.tot_requests           2957                       # Total number of requests made to the snoop filter.
system.l2bus.snoop_filter.tot_snoops                0                       # Total number of snoops made to the snoop filter.
system.membus.snoop_filter.hit_multi_requests            0                       # Number of requests hitting in the snoop filter with multiple (>1) holders of the requested data.
system.membus.snoop_filter.hit_multi_snoops            0                       # Number of snoops hitting in the snoop filter with multiple (>1) holders of the requested data.
system.membus.snoop_filter.hit_single_requests            0                       # Number of requests hitting in the snoop filter with a single holder of the requested data.
system.membus.snoop_filter.hit_single_snoops            0                       # Number of snoops hitting in the snoop filter with a single holder of the requested data.
system.membus.snoop_filter.tot_requests          1166                       # Total number of requests made to the snoop filter.
system.membus.snoop_filter.tot_snoops               0                       # Total number of snoops made to the snoop filter.
system.clk_domain.clock                          1000                       # Clock period in ticks
system.clk_domain.voltage_domain.voltage            1                       # Voltage in Volts
system.cpu.dcache.demand_hits::.cpu.data     37276135                       # number of demand (read+write) hits
system.cpu.dcache.demand_hits::total         37276135                       # number of demand (read+write) hits
system.cpu.dcache.overall_hits::.cpu.data     37276135                       # number of overall hits
system.cpu.dcache.overall_hits::total        37276135                       # number of overall hits
system.cpu.dcache.demand_misses::.cpu.data          594                       # number of demand (read+write) misses
system.cpu.dcache.demand_misses::total            594                       # number of demand (read+write) misses
system.cpu.dcache.overall_misses::.cpu.data          594                       # number of overall misses
system.cpu.dcache.overall_misses::total           594                       # number of overall misses
system.cpu.dcache.demand_miss_latency::.cpu.data     56245000                       # number of demand (read+write) miss cycles
system.cpu.dcache.demand_miss_latency::total     56245000                       # number of demand (read+write) miss cycles
system.cpu.dcache.overall_miss_latency::.cpu.data     56245000                       # number of overall miss cycles
system.cpu.dcache.overall_miss_latency::total     56245000                       # number of overall miss cycles
system.cpu.dcache.demand_accesses::.cpu.data     37276729                       # number of demand (read+write) accesses
system.cpu.dcache.demand_accesses::total     37276729                       # number of demand (read+write) accesses
system.cpu.dcache.overall_accesses::.cpu.data     37276729                       # number of overall (read+write) accesses
system.cpu.dcache.overall_accesses::total     37276729                       # number of overall (read+write) accesses
system.cpu.dcache.demand_miss_rate::.cpu.data     0.000016                       # miss rate for demand accesses
system.cpu.dcache.demand_miss_rate::total     0.000016                       # miss rate for demand accesses
system.cpu.dcache.overall_miss_rate::.cpu.data     0.000016                       # miss rate for overall accesses
system.cpu.dcache.overall_miss_rate::total     0.000016                       # miss rate for overall accesses
system.cpu.dcache.demand_avg_miss_latency::.cpu.data 94688.552189                       # average overall miss latency
system.cpu.dcache.demand_avg_miss_latency::total 94688.552189                       # average overall miss latency
system.cpu.dcache.overall_avg_miss_latency::.cpu.data 94688.552189                       # average overall miss latency
system.cpu.dcache.overall_avg_miss_latency::total 94688.552189                       # average overall miss latency
system.cpu.dcache.blocked_cycles::no_mshrs            0                       # number of cycles access was blocked
system.cpu.dcache.blocked_cycles::no_targets            0                       # number of cycles access was blocked
system.cpu.dcache.blocked::no_mshrs                 0                       # number of cycles access was blocked
system.cpu.dcache.blocked::no_targets               0                       # number of cycles access was blocked
system.cpu.dcache.avg_blocked_cycles::no_mshrs          nan                       # average number of cycles each access was blocked
system.cpu.dcache.avg_blocked_cycles::no_targets          nan                       # average number of cycles each access was blocked
system.cpu.dcache.writebacks::.writebacks            4                       # number of writebacks
system.cpu.dcache.writebacks::total                 4                       # number of writebacks
system.cpu.dcache.demand_mshr_misses::.cpu.data          594                       # number of demand (read+write) MSHR misses
system.cpu.dcache.demand_mshr_misses::total          594                       # number of demand (read+write) MSHR misses
system.cpu.dcache.overall_mshr_misses::.cpu.data          594                       # number of overall MSHR misses
system.cpu.dcache.overall_mshr_misses::total          594                       # number of overall MSHR misses
system.cpu.dcache.demand_mshr_miss_latency::.cpu.data     55057000                       # number of demand (read+write) MSHR miss cycles
system.cpu.dcache.demand_mshr_miss_latency::total     55057000                       # number of demand (read+write) MSHR miss cycles
system.cpu.dcache.overall_mshr_miss_latency::.cpu.data     55057000                       # number of overall MSHR miss cycles
system.cpu.dcache.overall_mshr_miss_latency::total     55057000                       # number of overall MSHR miss cycles
system.cpu.dcache.demand_mshr_miss_rate::.cpu.data     0.000016                       # mshr miss rate for demand accesses
system.cpu.dcache.demand_mshr_miss_rate::total     0.000016                       # mshr miss rate for demand accesses
system.cpu.dcache.overall_mshr_miss_rate::.cpu.data     0.000016                       # mshr miss rate for overall accesses
system.cpu.dcache.overall_mshr_miss_rate::total     0.000016                       # mshr miss rate for overall accesses
system.cpu.dcache.demand_avg_mshr_miss_latency::.cpu.data 92688.552189                       # average overall mshr miss latency
system.cpu.dcache.demand_avg_mshr_miss_latency::total 92688.552189                       # average overall mshr miss latency
system.cpu.dcache.overall_avg_mshr_miss_latency::.cpu.data 92688.552189                       # average overall mshr miss latency
system.cpu.dcache.overall_avg_mshr_miss_latency::total 92688.552189                       # average overall mshr miss latency
system.cpu.dcache.replacements                     24                       # number of replacements
system.cpu.dcache.ReadReq_hits::.cpu.data     25487577                       # number of ReadReq hits
system.cpu.dcache.ReadReq_hits::total        25487577                       # number of ReadReq hits
system.cpu.dcache.ReadReq_misses::.cpu.data          280                       # number of ReadReq misses
system.cpu.dcache.ReadReq_misses::total           280                       # number of ReadReq misses
system.cpu.dcache.ReadReq_miss_latency::.cpu.data     26570000                       # number of ReadReq miss cycles
system.cpu.dcache.ReadReq_miss_latency::total     26570000                       # number of ReadReq miss cycles
system.cpu.dcache.ReadReq_accesses::.cpu.data     25487857                       # number of ReadReq accesses(hits+misses)
system.cpu.dcache.ReadReq_accesses::total     25487857                       # number of ReadReq accesses(hits+misses)
system.cpu.dcache.ReadReq_miss_rate::.cpu.data     0.000011                       # miss rate for ReadReq accesses
system.cpu.dcache.ReadReq_miss_rate::total     0.000011                       # miss rate for ReadReq accesses
system.cpu.dcache.ReadReq_avg_miss_latency::.cpu.data 94892.857143                       # average ReadReq miss latency
system.cpu.dcache.ReadReq_avg_miss_latency::total 94892.857143                       # average ReadReq miss latency
system.cpu.dcache.ReadReq_mshr_misses::.cpu.data          280                       # number of ReadReq MSHR misses
system.cpu.dcache.ReadReq_mshr_misses::total          280                       # number of ReadReq MSHR misses
system.cpu.dcache.ReadReq_mshr_miss_latency::.cpu.data     26010000                       # number of ReadReq MSHR miss cycles
system.cpu.dcache.ReadReq_mshr_miss_latency::total     26010000                       # number of ReadReq MSHR miss cycles
system.cpu.dcache.ReadReq_mshr_miss_rate::.cpu.data     0.000011                       # mshr miss rate for ReadReq accesses
system.cpu.dcache.ReadReq_mshr_miss_rate::total     0.000011                       # mshr miss rate for ReadReq accesses
system.cpu.dcache.ReadReq_avg_mshr_miss_latency::.cpu.data 92892.857143                       # average ReadReq mshr miss latency
system.cpu.dcache.ReadReq_avg_mshr_miss_latency::total 92892.857143                       # average ReadReq mshr miss latency
system.cpu.dcache.WriteReq_hits::.cpu.data     11788558                       # number of WriteReq hits
system.cpu.dcache.WriteReq_hits::total       11788558                       # number of WriteReq hits
system.cpu.dcache.WriteReq_misses::.cpu.data          314                       # number of WriteReq misses
system.cpu.dcache.WriteReq_misses::total          314                       # number of WriteReq misses
system.cpu.dcache.WriteReq_miss_latency::.cpu.data     29675000                       # number of WriteReq miss cycles
system.cpu.dcache.WriteReq_miss_latency::total     29675000                       # number of WriteReq miss cycles
system.cpu.dcache.WriteReq_accesses::.cpu.data     11788872                       # number of WriteReq accesses(hits+misses)
system.cpu.dcache.WriteReq_accesses::total     11788872                       # number of WriteReq accesses(hits+misses)
system.cpu.dcache.WriteReq_miss_rate::.cpu.data     0.000027                       # miss rate for WriteReq accesses
system.cpu.dcache.WriteReq_miss_rate::total     0.000027                       # miss rate for WriteReq accesses
system.cpu.dcache.WriteReq_avg_miss_latency::.cpu.data 94506.369427                       # average WriteReq miss latency
system.cpu.dcache.WriteReq_avg_miss_latency::total 94506.369427                       # average WriteReq miss latency
system.cpu.dcache.WriteReq_mshr_misses::.cpu.data          314                       # number of WriteReq MSHR misses
system.cpu.dcache.WriteReq_mshr_misses::total          314                       # number of WriteReq MSHR misses
system.cpu.dcache.WriteReq_mshr_miss_latency::.cpu.data     29047000                       # number of WriteReq MSHR miss cycles
system.cpu.dcache.WriteReq_mshr_miss_latency::total     29047000                       # number of WriteReq MSHR miss cycles
system.cpu.dcache.WriteReq_mshr_miss_rate::.cpu.data     0.000027                       # mshr miss rate for WriteReq accesses
system.cpu.dcache.WriteReq_mshr_miss_rate::total     0.000027                       # mshr miss rate for WriteReq accesses
system.cpu.dcache.WriteReq_avg_mshr_miss_latency::.cpu.data 92506.369427                       # average WriteReq mshr miss latency
system.cpu.dcache.WriteReq_avg_mshr_miss_latency::total 92506.369427                       # average WriteReq mshr miss latency
system.cpu.dcache.power_state.pwrStateResidencyTicks::UNDEFINED 200436427000                       # Cumulative time (in ticks) in various power states
system.cpu.dcache.tags.tagsinuse           555.512507                       # Cycle average of tags in use
system.cpu.dcache.tags.total_refs            37276729                       # Total number of references to valid blocks.
system.cpu.dcache.tags.sampled_refs               594                       # Sample count of references to valid blocks.
system.cpu.dcache.tags.avg_refs          62755.436027                       # Average number of references to valid blocks.
system.cpu.dcache.tags.warmup_cycle            196000                       # Cycle when the warmup percentage was hit.
system.cpu.dcache.tags.occ_blocks::.cpu.data   555.512507                       # Average occupied blocks per requestor
system.cpu.dcache.tags.occ_percent::.cpu.data     0.542493                       # Average percentage of cache occupancy
system.cpu.dcache.tags.occ_percent::total     0.542493                       # Average percentage of cache occupancy
system.cpu.dcache.tags.occ_task_id_blocks::1024          570                       # Occupied blocks per task id
system.cpu.dcache.tags.age_task_id_blocks_1024::0           12                       # Occupied blocks per task id
system.cpu.dcache.tags.age_task_id_blocks_1024::1            2                       # Occupied blocks per task id
system.cpu.dcache.tags.age_task_id_blocks_1024::4          556                       # Occupied blocks per task id
system.cpu.dcache.tags.occ_task_id_percent::1024     0.556641                       # Percentage of cache occupancy per task id
system.cpu.dcache.tags.tag_accesses          74554052                       # Number of tag accesses
system.cpu.dcache.tags.data_accesses         74554052                       # Number of data accesses
system.cpu.dcache.tags.power_state.pwrStateResidencyTicks::UNDEFINED 200436427000                       # Cumulative time (in ticks) in various power states
system.cpu.dtb.rdAccesses                    25487858                       # TLB accesses on read requests
system.cpu.dtb.wrAccesses                    11788875                       # TLB accesses on write requests
system.cpu.dtb.rdMisses                            15                       # TLB misses on read requests
system.cpu.dtb.wrMisses                            14                       # TLB misses on write requests
system.cpu.dtb.walker.power_state.pwrStateResidencyTicks::UNDEFINED 200436427000                       # Cumulative time (in ticks) in various power states
system.cpu.icache.demand_hits::.cpu.inst     62877801                       # number of demand (read+write) hits
system.cpu.icache.demand_hits::total         62877801                       # number of demand (read+write) hits
system.cpu.icache.overall_hits::.cpu.inst     62877801                       # number of overall hits
system.cpu.icache.overall_hits::total        62877801                       # number of overall hits
system.cpu.icache.demand_misses::.cpu.inst         1294                       # number of demand (read+write) misses
system.cpu.icache.demand_misses::total           1294                       # number of demand (read+write) misses
system.cpu.icache.overall_misses::.cpu.inst         1294                       # number of overall misses
system.cpu.icache.overall_misses::total          1294                       # number of overall misses
system.cpu.icache.demand_miss_latency::.cpu.inst     72835000                       # number of demand (read+write) miss cycles
system.cpu.icache.demand_miss_latency::total     72835000                       # number of demand (read+write) miss cycles
system.cpu.icache.overall_miss_latency::.cpu.inst     72835000                       # number of overall miss cycles
system.cpu.icache.overall_miss_latency::total     72835000                       # number of overall miss cycles
system.cpu.icache.demand_accesses::.cpu.inst     62879095                       # number of demand (read+write) accesses
system.cpu.icache.demand_accesses::total     62879095                       # number of demand (read+write) accesses
system.cpu.icache.overall_accesses::.cpu.inst     62879095                       # number of overall (read+write) accesses
system.cpu.icache.overall_accesses::total     62879095                       # number of overall (read+write) accesses
system.cpu.icache.demand_miss_rate::.cpu.inst     0.000021                       # miss rate for demand accesses
system.cpu.icache.demand_miss_rate::total     0.000021                       # miss rate for demand accesses
system.cpu.icache.overall_miss_rate::.cpu.inst     0.000021                       # miss rate for overall accesses
system.cpu.icache.overall_miss_rate::total     0.000021                       # miss rate for overall accesses
system.cpu.icache.demand_avg_miss_latency::.cpu.inst 56286.707883                       # average overall miss latency
system.cpu.icache.demand_avg_miss_latency::total 56286.707883                       # average overall miss latency
system.cpu.icache.overall_avg_miss_latency::.cpu.inst 56286.707883                       # average overall miss latency
system.cpu.icache.overall_avg_miss_latency::total 56286.707883                       # average overall miss latency
system.cpu.icache.blocked_cycles::no_mshrs            0                       # number of cycles access was blocked
system.cpu.icache.blocked_cycles::no_targets            0                       # number of cycles access was blocked
system.cpu.icache.blocked::no_mshrs                 0                       # number of cycles access was blocked
system.cpu.icache.blocked::no_targets               0                       # number of cycles access was blocked
system.cpu.icache.avg_blocked_cycles::no_mshrs          nan                       # average number of cycles each access was blocked
system.cpu.icache.avg_blocked_cycles::no_targets          nan                       # average number of cycles each access was blocked
system.cpu.icache.demand_mshr_misses::.cpu.inst         1294                       # number of demand (read+write) MSHR misses
system.cpu.icache.demand_mshr_misses::total         1294                       # number of demand (read+write) MSHR misses
system.cpu.icache.overall_mshr_misses::.cpu.inst         1294                       # number of overall MSHR misses
system.cpu.icache.overall_mshr_misses::total         1294                       # number of overall MSHR misses
system.cpu.icache.demand_mshr_miss_latency::.cpu.inst     70247000                       # number of demand (read+write) MSHR miss cycles
system.cpu.icache.demand_mshr_miss_latency::total     70247000                       # number of demand (read+write) MSHR miss cycles
system.cpu.icache.overall_mshr_miss_latency::.cpu.inst     70247000                       # number of overall MSHR miss cycles
system.cpu.icache.overall_mshr_miss_latency::total     70247000                       # number of overall MSHR miss cycles
system.cpu.icache.demand_mshr_miss_rate::.cpu.inst     0.000021                       # mshr miss rate for demand accesses
system.cpu.icache.demand_mshr_miss_rate::total     0.000021                       # mshr miss rate for demand accesses
system.cpu.icache.overall_mshr_miss_rate::.cpu.inst     0.000021                       # mshr miss rate for overall accesses
system.cpu.icache.overall_mshr_miss_rate::total     0.000021                       # mshr miss rate for overall accesses
system.cpu.icache.demand_avg_mshr_miss_latency::.cpu.inst 54286.707883                       # average overall mshr miss latency
system.cpu.icache.demand_avg_mshr_miss_latency::total 54286.707883                       # average overall mshr miss latency
system.cpu.icache.overall_avg_mshr_miss_latency::.cpu.inst 54286.707883                       # average overall mshr miss latency
system.cpu.icache.overall_avg_mshr_miss_latency::total 54286.707883                       # average overall mshr miss latency
system.cpu.icache.replacements                   1045                       # number of replacements
system.cpu.icache.ReadReq_hits::.cpu.inst     62877801                       # number of ReadReq hits
system.cpu.icache.ReadReq_hits::total        62877801                       # number of ReadReq hits
system.cpu.icache.ReadReq_misses::.cpu.inst         1294                       # number of ReadReq misses
system.cpu.icache.ReadReq_misses::total          1294                       # number of ReadReq misses
system.cpu.icache.ReadReq_miss_latency::.cpu.inst     72835000                       # number of ReadReq miss cycles
system.cpu.icache.ReadReq_miss_latency::total     72835000                       # number of ReadReq miss cycles
system.cpu.icache.ReadReq_accesses::.cpu.inst     62879095                       # number of ReadReq accesses(hits+misses)
system.cpu.icache.ReadReq_accesses::total     62879095                       # number of ReadReq accesses(hits+misses)
system.cpu.icache.ReadReq_miss_rate::.cpu.inst     0.000021                       # miss rate for ReadReq accesses
system.cpu.icache.ReadReq_miss_rate::total     0.000021                       # miss rate for ReadReq accesses
system.cpu.icache.ReadReq_avg_miss_latency::.cpu.inst 56286.707883                       # average ReadReq miss latency
system.cpu.icache.ReadReq_avg_miss_latency::total 56286.707883                       # average ReadReq miss latency
system.cpu.icache.ReadReq_mshr_misses::.cpu.inst         1294                       # number of ReadReq MSHR misses
system.cpu.icache.ReadReq_mshr_misses::total         1294                       # number of ReadReq MSHR misses
system.cpu.icache.ReadReq_mshr_miss_latency::.cpu.inst     70247000                       # number of ReadReq MSHR miss cycles
system.cpu.icache.ReadReq_mshr_miss_latency::total     70247000                       # number of ReadReq MSHR miss cycles
system.cpu.icache.ReadReq_mshr_miss_rate::.cpu.inst     0.000021                       # mshr miss rate for ReadReq accesses
system.cpu.icache.ReadReq_mshr_miss_rate::total     0.000021                       # mshr miss rate for ReadReq accesses
system.cpu.icache.ReadReq_avg_mshr_miss_latency::.cpu.inst 54286.707883                       # average ReadReq mshr miss latency
system.cpu.icache.ReadReq_avg_mshr_miss_latency::total 54286.707883                       # average ReadReq mshr miss latency
system.cpu.icache.power_state.pwrStateResidencyTicks::UNDEFINED 200436427000                       # Cumulative time (in ticks) in various power states
system.cpu.icache.tags.tagsinuse           242.942426                       # Cycle average of tags in use
system.cpu.icache.tags.total_refs            62879095                       # Total number of references to valid blocks.
system.cpu.icache.tags.sampled_refs              1294                       # Sample count of references to valid blocks.
system.cpu.icache.tags.avg_refs          48592.809119                       # Average number of references to valid blocks.
system.cpu.icache.tags.warmup_cycle             93000                       # Cycle when the warmup percentage was hit.
system.cpu.icache.tags.occ_blocks::.cpu.inst   242.942426                       # Average occupied blocks per requestor
system.cpu.icache.tags.occ_percent::.cpu.inst     0.948994                       # Average percentage of cache occupancy
system.cpu.icache.tags.occ_percent::total     0.948994                       # Average percentage of cache occupancy
system.cpu.icache.tags.occ_task_id_blocks::1024          249                       # Occupied blocks per task id
system.cpu.icache.tags.age_task_id_blocks_1024::0           56                       # Occupied blocks per task id
system.cpu.icache.tags.age_task_id_blocks_1024::1           16                       # Occupied blocks per task id
system.cpu.icache.tags.age_task_id_blocks_1024::4          177                       # Occupied blocks per task id
system.cpu.icache.tags.occ_task_id_percent::1024     0.972656                       # Percentage of cache occupancy per task id
system.cpu.icache.tags.tag_accesses         125759484                       # Number of tag accesses
system.cpu.icache.tags.data_accesses        125759484                       # Number of data accesses
system.cpu.icache.tags.power_state.pwrStateResidencyTicks::UNDEFINED 200436427000                       # Cumulative time (in ticks) in various power states
system.cpu.interrupts.clk_domain.clock          16000                       # Clock period in ticks
system.cpu.itb.rdAccesses                           0                       # TLB accesses on read requests
system.cpu.itb.wrAccesses                    62879095                       # TLB accesses on write requests
system.cpu.itb.rdMisses                             0                       # TLB misses on read requests
system.cpu.itb.wrMisses                            53                       # TLB misses on write requests
system.cpu.itb.walker.power_state.pwrStateResidencyTicks::UNDEFINED 200436427000                       # Cumulative time (in ticks) in various power states
system.cpu.power_state.pwrStateResidencyTicks::ON 200436427000                       # Cumulative time (in ticks) in various power states
system.cpu.thread8819.numInsts                      0                       # Number of Instructions committed
system.cpu.thread8819.numOps                        0                       # Number of Ops committed
system.cpu.thread8819.numMemRefs                    0                       # Number of Memory References
system.l2bus.trans_dist::ReadResp                1574                       # Transaction distribution
system.l2bus.trans_dist::WritebackDirty             4                       # Transaction distribution
system.l2bus.trans_dist::CleanEvict              1065                       # Transaction distribution
system.l2bus.trans_dist::ReadExReq                314                       # Transaction distribution
system.l2bus.trans_dist::ReadExResp               314                       # Transaction distribution
system.l2bus.trans_dist::ReadSharedReq           1574                       # Transaction distribution
system.l2bus.pkt_count_system.cpu.icache.mem_side_port::system.l2cache.cpu_side_port         3633                       # Packet count per connected requestor and responder (bytes)
system.l2bus.pkt_count_system.cpu.dcache.mem_side_port::system.l2cache.cpu_side_port         1212                       # Packet count per connected requestor and responder (bytes)
system.l2bus.pkt_count::total                    4845                       # Packet count per connected requestor and responder (bytes)
system.l2bus.pkt_size_system.cpu.icache.mem_side_port::system.l2cache.cpu_side_port        82816                       # Cumulative packet size per connected requestor and responder (bytes)
system.l2bus.pkt_size_system.cpu.dcache.mem_side_port::system.l2cache.cpu_side_port        38272                       # Cumulative packet size per connected requestor and responder (bytes)
system.l2bus.pkt_size::total                   121088                       # Cumulative packet size per connected requestor and responder (bytes)
system.l2bus.snoops                                 0                       # Total snoops (count)
system.l2bus.snoopTraffic                           0                       # Total snoop traffic (bytes)
system.l2bus.snoop_fanout::samples               1888                       # Request fanout histogram
system.l2bus.snoop_fanout::mean                     0                       # Request fanout histogram
system.l2bus.snoop_fanout::stdev                    0                       # Request fanout histogram
system.l2bus.snoop_fanout::underflows               0      0.00%      0.00% # Request fanout histogram
system.l2bus.snoop_fanout::0                     1888    100.00%    100.00% # Request fanout histogram
system.l2bus.snoop_fanout::1                        0      0.00%    100.00% # Request fanout histogram
system.l2bus.snoop_fanout::2                        0      0.00%    100.00% # Request fanout histogram
system.l2bus.snoop_fanout::overflows                0      0.00%    100.00% # Request fanout histogram
system.l2bus.snoop_fanout::min_value                0                       # Request fanout histogram
system.l2bus.snoop_fanout::max_value                0                       # Request fanout histogram
system.l2bus.snoop_fanout::total                 1888                       # Request fanout histogram
system.l2bus.power_state.pwrStateResidencyTicks::UNDEFINED 200436427000                       # Cumulative time (in ticks) in various power states
system.l2bus.reqLayer0.occupancy              2965000                       # Layer occupancy (ticks)
system.l2bus.reqLayer0.utilization                0.0                       # Layer utilization (%)
system.l2bus.respLayer0.occupancy             3882000                       # Layer occupancy (ticks)
system.l2bus.respLayer0.utilization               0.0                       # Layer utilization (%)
system.l2bus.respLayer1.occupancy             1782000                       # Layer occupancy (ticks)
system.l2bus.respLayer1.utilization               0.0                       # Layer utilization (%)
system.l2cache.demand_hits::.cpu.inst             722                       # number of demand (read+write) hits
system.l2cache.demand_hits::total                 722                       # number of demand (read+write) hits
system.l2cache.overall_hits::.cpu.inst            722                       # number of overall hits
system.l2cache.overall_hits::total                722                       # number of overall hits
system.l2cache.demand_misses::.cpu.inst           572                       # number of demand (read+write) misses
system.l2cache.demand_misses::.cpu.data           594                       # number of demand (read+write) misses
system.l2cache.demand_misses::total              1166                       # number of demand (read+write) misses
system.l2cache.overall_misses::.cpu.inst          572                       # number of overall misses
system.l2cache.overall_misses::.cpu.data          594                       # number of overall misses
system.l2cache.overall_misses::total             1166                       # number of overall misses
system.l2cache.demand_miss_latency::.cpu.inst     51203000                       # number of demand (read+write) miss cycles
system.l2cache.demand_miss_latency::.cpu.data     53275000                       # number of demand (read+write) miss cycles
system.l2cache.demand_miss_latency::total    104478000                       # number of demand (read+write) miss cycles
system.l2cache.overall_miss_latency::.cpu.inst     51203000                       # number of overall miss cycles
system.l2cache.overall_miss_latency::.cpu.data     53275000                       # number of overall miss cycles
system.l2cache.overall_miss_latency::total    104478000                       # number of overall miss cycles
system.l2cache.demand_accesses::.cpu.inst         1294                       # number of demand (read+write) accesses
system.l2cache.demand_accesses::.cpu.data          594                       # number of demand (read+write) accesses
system.l2cache.demand_accesses::total            1888                       # number of demand (read+write) accesses
system.l2cache.overall_accesses::.cpu.inst         1294                       # number of overall (read+write) accesses
system.l2cache.overall_accesses::.cpu.data          594                       # number of overall (read+write) accesses
system.l2cache.overall_accesses::total           1888                       # number of overall (read+write) accesses
system.l2cache.demand_miss_rate::.cpu.inst     0.442040                       # miss rate for demand accesses
system.l2cache.demand_miss_rate::.cpu.data            1                       # miss rate for demand accesses
system.l2cache.demand_miss_rate::total       0.617585                       # miss rate for demand accesses
system.l2cache.overall_miss_rate::.cpu.inst     0.442040                       # miss rate for overall accesses
system.l2cache.overall_miss_rate::.cpu.data            1                       # miss rate for overall accesses
system.l2cache.overall_miss_rate::total      0.617585                       # miss rate for overall accesses
system.l2cache.demand_avg_miss_latency::.cpu.inst 89515.734266                       # average overall miss latency
system.l2cache.demand_avg_miss_latency::.cpu.data 89688.552189                       # average overall miss latency
system.l2cache.demand_avg_miss_latency::total 89603.773585                       # average overall miss latency
system.l2cache.overall_avg_miss_latency::.cpu.inst 89515.734266                       # average overall miss latency
system.l2cache.overall_avg_miss_latency::.cpu.data 89688.552189                       # average overall miss latency
system.l2cache.overall_avg_miss_latency::total 89603.773585                       # average overall miss latency
system.l2cache.blocked_cycles::no_mshrs             0                       # number of cycles access was blocked
system.l2cache.blocked_cycles::no_targets            0                       # number of cycles access was blocked
system.l2cache.blocked::no_mshrs                    0                       # number of cycles access was blocked
system.l2cache.blocked::no_targets                  0                       # number of cycles access was blocked
system.l2cache.avg_blocked_cycles::no_mshrs          nan                       # average number of cycles each access was blocked
system.l2cache.avg_blocked_cycles::no_targets          nan                       # average number of cycles each access was blocked
system.l2cache.demand_mshr_misses::.cpu.inst          572                       # number of demand (read+write) MSHR misses
system.l2cache.demand_mshr_misses::.cpu.data          594                       # number of demand (read+write) MSHR misses
system.l2cache.demand_mshr_misses::total         1166                       # number of demand (read+write) MSHR misses
system.l2cache.overall_mshr_misses::.cpu.inst          572                       # number of overall MSHR misses
system.l2cache.overall_mshr_misses::.cpu.data          594                       # number of overall MSHR misses
system.l2cache.overall_mshr_misses::total         1166                       # number of overall MSHR misses
system.l2cache.demand_mshr_miss_latency::.cpu.inst     39763000                       # number of demand (read+write) MSHR miss cycles
system.l2cache.demand_mshr_miss_latency::.cpu.data     41395000                       # number of demand (read+write) MSHR miss cycles
system.l2cache.demand_mshr_miss_latency::total     81158000                       # number of demand (read+write) MSHR miss cycles
system.l2cache.overall_mshr_miss_latency::.cpu.inst     39763000                       # number of overall MSHR miss cycles
system.l2cache.overall_mshr_miss_latency::.cpu.data     41395000                       # number of overall MSHR miss cycles
system.l2cache.overall_mshr_miss_latency::total     81158000                       # number of overall MSHR miss cycles
system.l2cache.demand_mshr_miss_rate::.cpu.inst     0.442040                       # mshr miss rate for demand accesses
system.l2cache.demand_mshr_miss_rate::.cpu.data            1                       # mshr miss rate for demand accesses
system.l2cache.demand_mshr_miss_rate::total     0.617585                       # mshr miss rate for demand accesses
system.l2cache.overall_mshr_miss_rate::.cpu.inst     0.442040                       # mshr miss rate for overall accesses
system.l2cache.overall_mshr_miss_rate::.cpu.data            1                       # mshr miss rate for overall accesses
system.l2cache.overall_mshr_miss_rate::total     0.617585                       # mshr miss rate for overall accesses
system.l2cache.demand_avg_mshr_miss_latency::.cpu.inst 69515.734266                       # average overall mshr miss latency
system.l2cache.demand_avg_mshr_miss_latency::.cpu.data 69688.552189                       # average overall mshr miss latency
system.l2cache.demand_avg_mshr_miss_latency::total 69603.773585                       # average overall mshr miss latency
system.l2cache.overall_avg_mshr_miss_latency::.cpu.inst 69515.734266                       # average overall mshr miss latency
system.l2cache.overall_avg_mshr_miss_latency::.cpu.data 69688.552189                       # average overall mshr miss latency
system.l2cache.overall_avg_mshr_miss_latency::total 69603.773585                       # average overall mshr miss latency
system.l2cache.replacements                         0                       # number of replacements
system.l2cache.WritebackDirty_hits::.writebacks            4                       # number of WritebackDirty hits
system.l2cache.WritebackDirty_hits::total            4                       # number of WritebackDirty hits
system.l2cache.WritebackDirty_accesses::.writebacks            4                       # number of WritebackDirty accesses(hits+misses)
system.l2cache.WritebackDirty_accesses::total            4                       # number of WritebackDirty accesses(hits+misses)
system.l2cache.ReadExReq_misses::.cpu.data          314                       # number of ReadExReq misses
system.l2cache.ReadExReq_misses::total            314                       # number of ReadExReq misses
system.l2cache.ReadExReq_miss_latency::.cpu.data     28105000                       # number of ReadExReq miss cycles
system.l2cache.ReadExReq_miss_latency::total     28105000                       # number of ReadExReq miss cycles
system.l2cache.ReadExReq_accesses::.cpu.data          314                       # number of ReadExReq accesses(hits+misses)
system.l2cache.ReadExReq_accesses::total          314                       # number of ReadExReq accesses(hits+misses)
system.l2cache.ReadExReq_miss_rate::.cpu.data            1                       # miss rate for ReadExReq accesses
system.l2cache.ReadExReq_miss_rate::total            1                       # miss rate for ReadExReq accesses
system.l2cache.ReadExReq_avg_miss_latency::.cpu.data 89506.369427                       # average ReadExReq miss latency
system.l2cache.ReadExReq_avg_miss_latency::total 89506.369427                       # average ReadExReq miss latency
system.l2cache.ReadExReq_mshr_misses::.cpu.data          314                       # number of ReadExReq MSHR misses
system.l2cache.ReadExReq_mshr_misses::total          314                       # number of ReadExReq MSHR misses
system.l2cache.ReadExReq_mshr_miss_latency::.cpu.data     21825000                       # number of ReadExReq MSHR miss cycles
system.l2cache.ReadExReq_mshr_miss_latency::total     21825000                       # number of ReadExReq MSHR miss cycles
system.l2cache.ReadExReq_mshr_miss_rate::.cpu.data            1                       # mshr miss rate for ReadExReq accesses
system.l2cache.ReadExReq_mshr_miss_rate::total            1                       # mshr miss rate for ReadExReq accesses
system.l2cache.ReadExReq_avg_mshr_miss_latency::.cpu.data 69506.369427                       # average ReadExReq mshr miss latency
system.l2cache.ReadExReq_avg_mshr_miss_latency::total 69506.369427                       # average ReadExReq mshr miss latency
system.l2cache.ReadSharedReq_hits::.cpu.inst          722                       # number of ReadSharedReq hits
system.l2cache.ReadSharedReq_hits::total          722                       # number of ReadSharedReq hits
system.l2cache.ReadSharedReq_misses::.cpu.inst          572                       # number of ReadSharedReq misses
system.l2cache.ReadSharedReq_misses::.cpu.data          280                       # number of ReadSharedReq misses
system.l2cache.ReadSharedReq_misses::total          852                       # number of ReadSharedReq misses
system.l2cache.ReadSharedReq_miss_latency::.cpu.inst     51203000                       # number of ReadSharedReq miss cycles
system.l2cache.ReadSharedReq_miss_latency::.cpu.data     25170000                       # number of ReadSharedReq miss cycles
system.l2cache.ReadSharedReq_miss_latency::total     76373000                       # number of ReadSharedReq miss cycles
system.l2cache.ReadSharedReq_accesses::.cpu.inst         1294                       # number of ReadSharedReq accesses(hits+misses)
system.l2cache.ReadSharedReq_accesses::.cpu.data          280                       # number of ReadSharedReq accesses(hits+misses)
system.l2cache.ReadSharedReq_accesses::total         1574                       # number of ReadSharedReq accesses(hits+misses)
system.l2cache.ReadSharedReq_miss_rate::.cpu.inst     0.442040                       # miss rate for ReadSharedReq accesses
system.l2cache.ReadSharedReq_miss_rate::.cpu.data            1                       # miss rate for ReadSharedReq accesses
system.l2cache.ReadSharedReq_miss_rate::total     0.541296                       # miss rate for ReadSharedReq accesses
system.l2cache.ReadSharedReq_avg_miss_latency::.cpu.inst 89515.734266                       # average ReadSharedReq miss latency
system.l2cache.ReadSharedReq_avg_miss_latency::.cpu.data 89892.857143                       # average ReadSharedReq miss latency
system.l2cache.ReadSharedReq_avg_miss_latency::total 89639.671362                       # average ReadSharedReq miss latency
system.l2cache.ReadSharedReq_mshr_misses::.cpu.inst          572                       # number of ReadSharedReq MSHR misses
system.l2cache.ReadSharedReq_mshr_misses::.cpu.data          280                       # number of ReadSharedReq MSHR misses
system.l2cache.ReadSharedReq_mshr_misses::total          852                       # number of ReadSharedReq MSHR misses
system.l2cache.ReadSharedReq_mshr_miss_latency::.cpu.inst     39763000                       # number of ReadSharedReq MSHR miss cycles
system.l2cache.ReadSharedReq_mshr_miss_latency::.cpu.data     19570000                       # number of ReadSharedReq MSHR miss cycles
system.l2cache.ReadSharedReq_mshr_miss_latency::total     59333000                       # number of ReadSharedReq MSHR miss cycles
system.l2cache.ReadSharedReq_mshr_miss_rate::.cpu.inst     0.442040                       # mshr miss rate for ReadSharedReq accesses
system.l2cache.ReadSharedReq_mshr_miss_rate::.cpu.data            1                       # mshr miss rate for ReadSharedReq accesses
system.l2cache.ReadSharedReq_mshr_miss_rate::total     0.541296                       # mshr miss rate for ReadSharedReq accesses
system.l2cache.ReadSharedReq_avg_mshr_miss_latency::.cpu.inst 69515.734266                       # average ReadSharedReq mshr miss latency
system.l2cache.ReadSharedReq_avg_mshr_miss_latency::.cpu.data 69892.857143                       # average ReadSharedReq mshr miss latency
system.l2cache.ReadSharedReq_avg_mshr_miss_latency::total 69639.671362                       # average ReadSharedReq mshr miss latency
system.l2cache.power_state.pwrStateResidencyTicks::UNDEFINED 200436427000                       # Cumulative time (in ticks) in various power states
system.l2cache.tags.tagsinuse             1096.284691                       # Cycle average of tags in use
system.l2cache.tags.total_refs                   2957                       # Total number of references to valid blocks.
system.l2cache.tags.sampled_refs                 1166                       # Sample count of references to valid blocks.
system.l2cache.tags.avg_refs                 2.536021                       # Average number of references to valid blocks.
system.l2cache.tags.warmup_cycle                72000                       # Cycle when the warmup percentage was hit.
system.l2cache.tags.occ_blocks::.cpu.inst   516.805268                       # Average occupied blocks per requestor
system.l2cache.tags.occ_blocks::.cpu.data   579.479423                       # Average occupied blocks per requestor
system.l2cache.tags.occ_percent::.cpu.inst     0.126173                       # Average percentage of cache occupancy
system.l2cache.tags.occ_percent::.cpu.data     0.141474                       # Average percentage of cache occupancy
system.l2cache.tags.occ_percent::total       0.267648                       # Average percentage of cache occupancy
system.l2cache.tags.occ_task_id_blocks::1024         1166                       # Occupied blocks per task id
system.l2cache.tags.age_task_id_blocks_1024::0           63                       # Occupied blocks per task id
system.l2cache.tags.age_task_id_blocks_1024::1            6                       # Occupied blocks per task id
system.l2cache.tags.age_task_id_blocks_1024::4         1097                       # Occupied blocks per task id
system.l2cache.tags.occ_task_id_percent::1024     0.284668                       # Percentage of cache occupancy per task id
system.l2cache.tags.tag_accesses                24822                       # Number of tag accesses
system.l2cache.tags.data_accesses               24822                       # Number of data accesses
system.l2cache.tags.power_state.pwrStateResidencyTicks::UNDEFINED 200436427000                       # Cumulative time (in ticks) in various power states
system.mem_ctrl.avgPriority_.cpu.inst::samples       572.00                       # Average QoS priority value for accepted requests
system.mem_ctrl.avgPriority_.cpu.data::samples       434.00                       # Average QoS priority value for accepted requests
system.mem_ctrl.priorityMinLatency       0.000000017492                       # per QoS priority minimum request to response latency (s)
system.mem_ctrl.priorityMaxLatency       0.000000019952                       # per QoS priority maximum request to response latency (s)
system.mem_ctrl.numReadWriteTurnArounds             0                       # Number of turnarounds from READ to WRITE
system.mem_ctrl.numWriteReadTurnArounds             0                       # Number of turnarounds from WRITE to READ
system.mem_ctrl.numStayReadState                 3018                       # Number of times bus staying in READ state
system.mem_ctrl.numStayWriteState                   0                       # Number of times bus staying in WRITE state
system.mem_ctrl.readReqs                         1006                       # Number of read requests accepted
system.mem_ctrl.writeReqs                           0                       # Number of write requests accepted
system.mem_ctrl.readBursts                       1006                       # Number of controller read bursts, including those serviced by the write queue
system.mem_ctrl.writeBursts                         0                       # Number of controller write bursts, including those merged in the write queue
system.mem_ctrl.servicedByWrQ                       0                       # Number of controller read bursts serviced by the write queue
system.mem_ctrl.mergedWrBursts                      0                       # Number of controller write bursts merged with an existing one
system.mem_ctrl.neitherReadNorWriteReqs             0                       # Number of requests that are neither read nor write
system.mem_ctrl.avgRdQLen                        1.00                       # Average read queue length when enqueuing
system.mem_ctrl.avgWrQLen                        0.00                       # Average write queue length when enqueuing
system.mem_ctrl.numRdRetry                          0                       # Number of times read queue was full causing retry
system.mem_ctrl.numWrRetry                          0                       # Number of times write queue was full causing retry
system.mem_ctrl.readPktSize::0                      0                       # Read request sizes (log2)
system.mem_ctrl.readPktSize::1                      0                       # Read request sizes (log2)
system.mem_ctrl.readPktSize::2                      0                       # Read request sizes (log2)
system.mem_ctrl.readPktSize::3                      0                       # Read request sizes (log2)
system.mem_ctrl.readPktSize::4                      0                       # Read request sizes (log2)
system.mem_ctrl.readPktSize::5                      0                       # Read request sizes (log2)
system.mem_ctrl.readPktSize::6                   1006                       # Read request sizes (log2)
system.mem_ctrl.writePktSize::0                     0                       # Write request sizes (log2)
system.mem_ctrl.writePktSize::1                     0                       # Write request sizes (log2)
system.mem_ctrl.writePktSize::2                     0                       # Write request sizes (log2)
system.mem_ctrl.writePktSize::3                     0                       # Write request sizes (log2)
system.mem_ctrl.writePktSize::4                     0                       # Write request sizes (log2)
system.mem_ctrl.writePktSize::5                     0                       # Write request sizes (log2)
system.mem_ctrl.writePktSize::6                     0                       # Write request sizes (log2)
system.mem_ctrl.rdQLenPdf::0                     1006                       # What read queue length does an incoming req see
system.mem_ctrl.rdQLenPdf::1                        0                       # What read queue length does an incoming req see
system.mem_ctrl.rdQLenPdf::2                        0                       # What read queue length does an incoming req see
system.mem_ctrl.rdQLenPdf::3                        0                       # What read queue length does an incoming req see
system.mem_ctrl.rdQLenPdf::4                        0                       # What read queue length does an incoming req see
system.mem_ctrl.rdQLenPdf::5                        0                       # What read queue length does an incoming req see
system.mem_ctrl.rdQLenPdf::6                        0                       # What read queue length does an incoming req see
system.mem_ctrl.rdQLenPdf::7                        0                       # What read queue length does an incoming req see
system.mem_ctrl.rdQLenPdf::8                        0                       # What read queue length does an incoming req see
system.mem_ctrl.rdQLenPdf::9                        0                       # What read queue length does an incoming req see
system.mem_ctrl.rdQLenPdf::10                       0                       # What read queue length does an incoming req see
system.mem_ctrl.rdQLenPdf::11                       0                       # What read queue length does an incoming req see
system.mem_ctrl.rdQLenPdf::12                       0                       # What read queue length does an incoming req see
system.mem_ctrl.rdQLenPdf::13                       0                       # What read queue length does an incoming req see
system.mem_ctrl.rdQLenPdf::14                       0                       # What read queue length does an incoming req see
system.mem_ctrl.rdQLenPdf::15                       0                       # What read queue length does an incoming req see
system.mem_ctrl.rdQLenPdf::16                       0                       # What read queue length does an incoming req see
system.mem_ctrl.rdQLenPdf::17                       0                       # What read queue length does an incoming req see
system.mem_ctrl.rdQLenPdf::18                       0                       # What read queue length does an incoming req see
system.mem_ctrl.rdQLenPdf::19                       0                       # What read queue length does an incoming req see
system.mem_ctrl.rdQLenPdf::20                       0                       # What read queue length does an incoming req see
system.mem_ctrl.rdQLenPdf::21                       0                       # What read queue length does an incoming req see
system.mem_ctrl.rdQLenPdf::22                       0                       # What read queue length does an incoming req see
system.mem_ctrl.rdQLenPdf::23                       0                       # What read queue length does an incoming req see
system.mem_ctrl.rdQLenPdf::24                       0                       # What read queue length does an incoming req see
system.mem_ctrl.rdQLenPdf::25                       0                       # What read queue length does an incoming req see
system.mem_ctrl.rdQLenPdf::26                       0                       # What read queue length does an incoming req see
system.mem_ctrl.rdQLenPdf::27                       0                       # What read queue length does an incoming req see
system.mem_ctrl.rdQLenPdf::28                       0                       # What read queue length does an incoming req see
system.mem_ctrl.rdQLenPdf::29                       0                       # What read queue length does an incoming req see
system.mem_ctrl.rdQLenPdf::30                       0                       # What read queue length does an incoming req see
system.mem_ctrl.rdQLenPdf::31                       0                       # What read queue length does an incoming req see
system.mem_ctrl.rdQLenPdf::32                       0                       # What read queue length does an incoming req see
system.mem_ctrl.rdQLenPdf::33                       0                       # What read queue length does an incoming req see
system.mem_ctrl.rdQLenPdf::34                       0                       # What read queue length does an incoming req see
system.mem_ctrl.rdQLenPdf::35                       0                       # What read queue length does an incoming req see
system.mem_ctrl.rdQLenPdf::36                       0                       # What read queue length does an incoming req see
system.mem_ctrl.rdQLenPdf::37                       0                       # What read queue length does an incoming req see
system.mem_ctrl.rdQLenPdf::38                       0                       # What read queue length does an incoming req see
system.mem_ctrl.rdQLenPdf::39                       0                       # What read queue length does an incoming req see
system.mem_ctrl.rdQLenPdf::40                       0                       # What read queue length does an incoming req see
system.mem_ctrl.rdQLenPdf::41                       0                       # What read queue length does an incoming req see
system.mem_ctrl.rdQLenPdf::42                       0                       # What read queue length does an incoming req see
system.mem_ctrl.rdQLenPdf::43                       0                       # What read queue length does an incoming req see
system.mem_ctrl.rdQLenPdf::44                       0                       # What read queue length does an incoming req see
system.mem_ctrl.rdQLenPdf::45                       0                       # What read queue length does an incoming req see
system.mem_ctrl.rdQLenPdf::46                       0                       # What read queue length does an incoming req see
system.mem_ctrl.rdQLenPdf::47                       0                       # What read queue length does an incoming req see
system.mem_ctrl.rdQLenPdf::48                       0                       # What read queue length does an incoming req see
system.mem_ctrl.rdQLenPdf::49                       0                       # What read queue length does an incoming req see
system.mem_ctrl.rdQLenPdf::50                       0                       # What read queue length does an incoming req see
system.mem_ctrl.rdQLenPdf::51                       0                       # What read queue length does an incoming req see
system.mem_ctrl.rdQLenPdf::52                       0                       # What read queue length does an incoming req see
system.mem_ctrl.rdQLenPdf::53                       0                       # What read queue length does an incoming req see
system.mem_ctrl.rdQLenPdf::54                       0                       # What read queue length does an incoming req see
system.mem_ctrl.rdQLenPdf::55                       0                       # What read queue length does an incoming req see
system.mem_ctrl.rdQLenPdf::56                       0                       # What read queue length does an incoming req see
system.mem_ctrl.rdQLenPdf::57                       0                       # What read queue length does an incoming req see
system.mem_ctrl.rdQLenPdf::58                       0                       # What read queue length does an incoming req see
system.mem_ctrl.rdQLenPdf::59                       0                       # What read queue length does an incoming req see
system.mem_ctrl.rdQLenPdf::60                       0                       # What read queue length does an incoming req see
system.mem_ctrl.rdQLenPdf::61                       0                       # What read queue length does an incoming req see
system.mem_ctrl.rdQLenPdf::62                       0                       # What read queue length does an incoming req see
system.mem_ctrl.rdQLenPdf::63                       0                       # What read queue length does an incoming req see
system.mem_ctrl.wrQLenPdf::0                        0                       # What write queue length does an incoming req see
system.mem_ctrl.wrQLenPdf::1                        0                       # What write queue length does an incoming req see
system.mem_ctrl.wrQLenPdf::2                        0                       # What write queue length does an incoming req see
system.mem_ctrl.wrQLenPdf::3                        0                       # What write queue length does an incoming req see
system.mem_ctrl.wrQLenPdf::4                        0                       # What write queue length does an incoming req see
system.mem_ctrl.wrQLenPdf::5                        0                       # What write queue length does an incoming req see
system.mem_ctrl.wrQLenPdf::6                        0                       # What write queue length does an incoming req see
system.mem_ctrl.wrQLenPdf::7                        0                       # What write queue length does an incoming req see
system.mem_ctrl.wrQLenPdf::8                        0                       # What write queue length does an incoming req see
system.mem_ctrl.wrQLenPdf::9                        0                       # What write queue length does an incoming req see
system.mem_ctrl.wrQLenPdf::10                       0                       # What write queue length does an incoming req see
system.mem_ctrl.wrQLenPdf::11                       0                       # What write queue length does an incoming req see
system.mem_ctrl.wrQLenPdf::12                       0                       # What write queue length does an incoming req see
system.mem_ctrl.wrQLenPdf::13                       0                       # What write queue length does an incoming req see
system.mem_ctrl.wrQLenPdf::14                       0                       # What write queue length does an incoming req see
system.mem_ctrl.wrQLenPdf::15                       0                       # What write queue length does an incoming req see
system.mem_ctrl.wrQLenPdf::16                       0                       # What write queue length does an incoming req see
system.mem_ctrl.wrQLenPdf::17                       0                       # What write queue length does an incoming req see
system.mem_ctrl.wrQLenPdf::18                       0                       # What write queue length does an incoming req see
system.mem_ctrl.wrQLenPdf::19                       0                       # What write queue length does an incoming req see
system.mem_ctrl.wrQLenPdf::20                       0                       # What write queue length does an incoming req see
system.mem_ctrl.wrQLenPdf::21                       0                       # What write queue length does an incoming req see
system.mem_ctrl.wrQLenPdf::22                       0                       # What write queue length does an incoming req see
system.mem_ctrl.wrQLenPdf::23                       0                       # What write queue length does an incoming req see
system.mem_ctrl.wrQLenPdf::24                       0                       # What write queue length does an incoming req see
system.mem_ctrl.wrQLenPdf::25                       0                       # What write queue length does an incoming req see
system.mem_ctrl.wrQLenPdf::26                       0                       # What write queue length does an incoming req see
system.mem_ctrl.wrQLenPdf::27                       0                       # What write queue length does an incoming req see
system.mem_ctrl.wrQLenPdf::28                       0                       # What write queue length does an incoming req see
system.mem_ctrl.wrQLenPdf::29                       0                       # What write queue length does an incoming req see
system.mem_ctrl.wrQLenPdf::30                       0                       # What write queue length does an incoming req see
system.mem_ctrl.wrQLenPdf::31                       0                       # What write queue length does an incoming req see
system.mem_ctrl.wrQLenPdf::32                       0                       # What write queue length does an incoming req see
system.mem_ctrl.wrQLenPdf::33                       0                       # What write queue length does an incoming req see
system.mem_ctrl.wrQLenPdf::34                       0                       # What write queue length does an incoming req see
system.mem_ctrl.wrQLenPdf::35                       0                       # What write queue length does an incoming req see
system.mem_ctrl.wrQLenPdf::36                       0                       # What write queue length does an incoming req see
system.mem_ctrl.wrQLenPdf::37                       0                       # What write queue length does an incoming req see
system.mem_ctrl.wrQLenPdf::38                       0                       # What write queue length does an incoming req see
system.mem_ctrl.wrQLenPdf::39                       0                       # What write queue length does an incoming req see
system.mem_ctrl.wrQLenPdf::40                       0                       # What write queue length does an incoming req see
system.mem_ctrl.wrQLenPdf::41                       0                       # What write queue length does an incoming req see
system.mem_ctrl.wrQLenPdf::42                       0                       # What write queue length does an incoming req see
system.mem_ctrl.wrQLenPdf::43                       0                       # What write queue length does an incoming req see
system.mem_ctrl.wrQLenPdf::44                       0                       # What write queue length does an incoming req see
system.mem_ctrl.wrQLenPdf::45                       0                       # What write queue length does an incoming req see
system.mem_ctrl.wrQLenPdf::46                       0                       # What write queue length does an incoming req see
system.mem_ctrl.wrQLenPdf::47                       0                       # What write queue length does an incoming req see
system.mem_ctrl.wrQLenPdf::48                       0                       # What write queue length does an incoming req see
system.mem_ctrl.wrQLenPdf::49                       0                       # What write queue length does an incoming req see
system.mem_ctrl.wrQLenPdf::50                       0                       # What write queue length does an incoming req see
system.mem_ctrl.wrQLenPdf::51                       0                       # What write queue length does an incoming req see
system.mem_ctrl.wrQLenPdf::52                       0                       # What write queue length does an incoming req see
system.mem_ctrl.wrQLenPdf::53                       0                       # What write queue length does an incoming req see
system.mem_ctrl.wrQLenPdf::54                       0                       # What write queue length does an incoming req see
system.mem_ctrl.wrQLenPdf::55                       0                       # What write queue length does an incoming req see
system.mem_ctrl.wrQLenPdf::56                       0                       # What write queue length does an incoming req see
system.mem_ctrl.wrQLenPdf::57                       0                       # What write queue length does an incoming req see
system.mem_ctrl.wrQLenPdf::58                       0                       # What write queue length does an incoming req see
system.mem_ctrl.wrQLenPdf::59                       0                       # What write queue length does an incoming req see
system.mem_ctrl.wrQLenPdf::60                       0                       # What write queue length does an incoming req see
system.mem_ctrl.wrQLenPdf::61                       0                       # What write queue length does an incoming req see
system.mem_ctrl.wrQLenPdf::62                       0                       # What write queue length does an incoming req see
system.mem_ctrl.wrQLenPdf::63                       0                       # What write queue length does an incoming req see
system.mem_ctrl.wrQLenPdf::64                       0                       # What write queue length does an incoming req see
system.mem_ctrl.wrQLenPdf::65                       0                       # What write queue length does an incoming req see
system.mem_ctrl.wrQLenPdf::66                       0                       # What write queue length does an incoming req see
system.mem_ctrl.wrQLenPdf::67                       0                       # What write queue length does an incoming req see
system.mem_ctrl.wrQLenPdf::68                       0                       # What write queue length does an incoming req see
system.mem_ctrl.wrQLenPdf::69                       0                       # What write queue length does an incoming req see
system.mem_ctrl.wrQLenPdf::70                       0                       # What write queue length does an incoming req see
system.mem_ctrl.wrQLenPdf::71                       0                       # What write queue length does an incoming req see
system.mem_ctrl.wrQLenPdf::72                       0                       # What write queue length does an incoming req see
system.mem_ctrl.wrQLenPdf::73                       0                       # What write queue length does an incoming req see
system.mem_ctrl.wrQLenPdf::74                       0                       # What write queue length does an incoming req see
system.mem_ctrl.wrQLenPdf::75                       0                       # What write queue length does an incoming req see
system.mem_ctrl.wrQLenPdf::76                       0                       # What write queue length does an incoming req see
system.mem_ctrl.wrQLenPdf::77                       0                       # What write queue length does an incoming req see
system.mem_ctrl.wrQLenPdf::78                       0                       # What write queue length does an incoming req see
system.mem_ctrl.wrQLenPdf::79                       0                       # What write queue length does an incoming req see
system.mem_ctrl.wrQLenPdf::80                       0                       # What write queue length does an incoming req see
system.mem_ctrl.wrQLenPdf::81                       0                       # What write queue length does an incoming req see
system.mem_ctrl.wrQLenPdf::82                       0                       # What write queue length does an incoming req see
system.mem_ctrl.wrQLenPdf::83                       0                       # What write queue length does an incoming req see
system.mem_ctrl.wrQLenPdf::84                       0                       # What write queue length does an incoming req see
system.mem_ctrl.wrQLenPdf::85                       0                       # What write queue length does an incoming req see
system.mem_ctrl.wrQLenPdf::86                       0                       # What write queue length does an incoming req see
system.mem_ctrl.wrQLenPdf::87                       0                       # What write queue length does an incoming req see
[...]
system.nvm_ctrl.wrQLenPdf::45                       0                       # What write queue length does an incoming req see
system.nvm_ctrl.wrQLenPdf::46                       0                       # What write queue length does an incoming req see
system.nvm_ctrl.wrQLenPdf::47                       0                       # What write queue length does an incoming req see
system.nvm_ctrl.wrQLenPdf::48                       0                       # What write queue length does an incoming req see
system.nvm_ctrl.wrQLenPdf::49                       0                       # What write queue length does an incoming req see
system.nvm_ctrl.wrQLenPdf::50                       0                       # What write queue length does an incoming req see
system.nvm_ctrl.wrQLenPdf::51                       0                       # What write queue length does an incoming req see
system.nvm_ctrl.wrQLenPdf::52                       0                       # What write queue length does an incoming req see
system.nvm_ctrl.wrQLenPdf::53                       0                       # What write queue length does an incoming req see
system.nvm_ctrl.wrQLenPdf::54                       0                       # What write queue length does an incoming req see
system.nvm_ctrl.wrQLenPdf::55                       0                       # What write queue length does an incoming req see
system.nvm_ctrl.wrQLenPdf::56                       0                       # What write queue length does an incoming req see
system.nvm_ctrl.wrQLenPdf::57                       0                       # What write queue length does an incoming req see
system.nvm_ctrl.wrQLenPdf::58                       0                       # What write queue length does an incoming req see
system.nvm_ctrl.wrQLenPdf::59                       0                       # What write queue length does an incoming req see
system.nvm_ctrl.wrQLenPdf::60                       0                       # What write queue length does an incoming req see
system.nvm_ctrl.wrQLenPdf::61                       0                       # What write queue length does an incoming req see
system.nvm_ctrl.wrQLenPdf::62                       0                       # What write queue length does an incoming req see
system.nvm_ctrl.wrQLenPdf::63                       0                       # What write queue length does an incoming req see
system.nvm_ctrl.wrQLenPdf::64                       0                       # What write queue length does an incoming req see
system.nvm_ctrl.wrQLenPdf::65                       0                       # What write queue length does an incoming req see
system.nvm_ctrl.wrQLenPdf::66                       0                       # What write queue length does an incoming req see
system.nvm_ctrl.wrQLenPdf::67                       0                       # What write queue length does an incoming req see
system.nvm_ctrl.wrQLenPdf::68                       0                       # What write queue length does an incoming req see
system.nvm_ctrl.wrQLenPdf::69                       0                       # What write queue length does an incoming req see
system.nvm_ctrl.wrQLenPdf::70                       0                       # What write queue length does an incoming req see
system.nvm_ctrl.wrQLenPdf::71                       0                       # What write queue length does an incoming req see
system.nvm_ctrl.wrQLenPdf::72                       0                       # What write queue length does an incoming req see
system.nvm_ctrl.wrQLenPdf::73                       0                       # What write queue length does an incoming req see
system.nvm_ctrl.wrQLenPdf::74                       0                       # What write queue length does an incoming req see
system.nvm_ctrl.wrQLenPdf::75                       0                       # What write queue length does an incoming req see
system.nvm_ctrl.wrQLenPdf::76                       0                       # What write queue length does an incoming req see
system.nvm_ctrl.wrQLenPdf::77                       0                       # What write queue length does an incoming req see
system.nvm_ctrl.wrQLenPdf::78                       0                       # What write queue length does an incoming req see
system.nvm_ctrl.wrQLenPdf::79                       0                       # What write queue length does an incoming req see
system.nvm_ctrl.wrQLenPdf::80                       0                       # What write queue length does an incoming req see
system.nvm_ctrl.wrQLenPdf::81                       0                       # What write queue length does an incoming req see
system.nvm_ctrl.wrQLenPdf::82                       0                       # What write queue length does an incoming req see
system.nvm_ctrl.wrQLenPdf::83                       0                       # What write queue length does an incoming req see
system.nvm_ctrl.wrQLenPdf::84                       0                       # What write queue length does an incoming req see
system.nvm_ctrl.wrQLenPdf::85                       0                       # What write queue length does an incoming req see
system.nvm_ctrl.wrQLenPdf::86                       0                       # What write queue length does an incoming req see
system.nvm_ctrl.wrQLenPdf::87                       0                       # What write queue length does an incoming req see
system.nvm_ctrl.wrQLenPdf::88                       0                       # What write queue length does an incoming req see
system.nvm_ctrl.wrQLenPdf::89                       0                       # What write queue length does an incoming req see
system.nvm_ctrl.wrQLenPdf::90                       0                       # What write queue length does an incoming req see
system.nvm_ctrl.wrQLenPdf::91                       0                       # What write queue length does an incoming req see
system.nvm_ctrl.wrQLenPdf::92                       0                       # What write queue length does an incoming req see
system.nvm_ctrl.wrQLenPdf::93                       0                       # What write queue length does an incoming req see
system.nvm_ctrl.wrQLenPdf::94                       0                       # What write queue length does an incoming req see
system.nvm_ctrl.wrQLenPdf::95                       0                       # What write queue length does an incoming req see
system.nvm_ctrl.wrQLenPdf::96                       0                       # What write queue length does an incoming req see
system.nvm_ctrl.wrQLenPdf::97                       0                       # What write queue length does an incoming req see
system.nvm_ctrl.wrQLenPdf::98                       0                       # What write queue length does an incoming req see
system.nvm_ctrl.wrQLenPdf::99                       0                       # What write queue length does an incoming req see
system.nvm_ctrl.wrQLenPdf::100                      0                       # What write queue length does an incoming req see
system.nvm_ctrl.wrQLenPdf::101                      0                       # What write queue length does an incoming req see
system.nvm_ctrl.wrQLenPdf::102                      0                       # What write queue length does an incoming req see
system.nvm_ctrl.wrQLenPdf::103                      0                       # What write queue length does an incoming req see
system.nvm_ctrl.wrQLenPdf::104                      0                       # What write queue length does an incoming req see
system.nvm_ctrl.wrQLenPdf::105                      0                       # What write queue length does an incoming req see
system.nvm_ctrl.wrQLenPdf::106                      0                       # What write queue length does an incoming req see
system.nvm_ctrl.wrQLenPdf::107                      0                       # What write queue length does an incoming req see
system.nvm_ctrl.wrQLenPdf::108                      0                       # What write queue length does an incoming req see
system.nvm_ctrl.wrQLenPdf::109                      0                       # What write queue length does an incoming req see
system.nvm_ctrl.wrQLenPdf::110                      0                       # What write queue length does an incoming req see
system.nvm_ctrl.wrQLenPdf::111                      0                       # What write queue length does an incoming req see
system.nvm_ctrl.wrQLenPdf::112                      0                       # What write queue length does an incoming req see
system.nvm_ctrl.wrQLenPdf::113                      0                       # What write queue length does an incoming req see
system.nvm_ctrl.wrQLenPdf::114                      0                       # What write queue length does an incoming req see
system.nvm_ctrl.wrQLenPdf::115                      0                       # What write queue length does an incoming req see
system.nvm_ctrl.wrQLenPdf::116                      0                       # What write queue length does an incoming req see
system.nvm_ctrl.wrQLenPdf::117                      0                       # What write queue length does an incoming req see
system.nvm_ctrl.wrQLenPdf::118                      0                       # What write queue length does an incoming req see
system.nvm_ctrl.wrQLenPdf::119                      0                       # What write queue length does an incoming req see
system.nvm_ctrl.wrQLenPdf::120                      0                       # What write queue length does an incoming req see
system.nvm_ctrl.wrQLenPdf::121                      0                       # What write queue length does an incoming req see
system.nvm_ctrl.wrQLenPdf::122                      0                       # What write queue length does an incoming req see
system.nvm_ctrl.wrQLenPdf::123                      0                       # What write queue length does an incoming req see
system.nvm_ctrl.wrQLenPdf::124                      0                       # What write queue length does an incoming req see
system.nvm_ctrl.wrQLenPdf::125                      0                       # What write queue length does an incoming req see
system.nvm_ctrl.wrQLenPdf::126                      0                       # What write queue length does an incoming req see
system.nvm_ctrl.wrQLenPdf::127                      0                       # What write queue length does an incoming req see
system.nvm_ctrl.bytesReadWrQ                        0                       # Total number of bytes read from write queue
system.nvm_ctrl.bytesReadSys                    10240                       # Total read bytes from the system interface side
system.nvm_ctrl.bytesWrittenSys                     0                       # Total written bytes from the system interface side
system.nvm_ctrl.avgRdBWSys                       0.05                       # Average system read bandwidth in MiByte/s
system.nvm_ctrl.avgWrBWSys                       0.00                       # Average system write bandwidth in MiByte/s
system.nvm_ctrl.totGap                      323084000                       # Total gap between requests
system.nvm_ctrl.avgGap                     2019275.00                       # Average gap between requests
system.nvm_ctrl.requestorReadBytes::.cpu.data        10240                       # Per-requestor bytes read from memory
system.nvm_ctrl.requestorReadRate::.cpu.data 51088.517956868192                       # Per-requestor bytes read from memory rate (Bytes/sec)
system.nvm_ctrl.requestorReadAccesses::.cpu.data          160                       # Per-requestor read serviced memory accesses
system.nvm_ctrl.requestorReadTotalLat::.cpu.data      3013720                       # Per-requestor read total memory access latency
system.nvm_ctrl.requestorReadAvgLat::.cpu.data     18835.75                       # Per-requestor read average memory access latency
system.nvm_ctrl.nvm.bytes_read::.cpu.data        10240                       # Number of bytes read from this memory
system.nvm_ctrl.nvm.bytes_read::total           10240                       # Number of bytes read from this memory
system.nvm_ctrl.nvm.num_reads::.cpu.data          160                       # Number of read requests responded to by this memory
system.nvm_ctrl.nvm.num_reads::total              160                       # Number of read requests responded to by this memory
system.nvm_ctrl.nvm.bw_read::.cpu.data          51089                       # Total read bandwidth from this memory (bytes/s)
system.nvm_ctrl.nvm.bw_read::total              51089                       # Total read bandwidth from this memory (bytes/s)
system.nvm_ctrl.nvm.bw_total::.cpu.data         51089                       # Total bandwidth to/from this memory (bytes/s)
system.nvm_ctrl.nvm.bw_total::total             51089                       # Total bandwidth to/from this memory (bytes/s)
system.nvm_ctrl.nvm.readBursts                    160                       # Number of NVM read bursts
system.nvm_ctrl.nvm.writeBursts                     0                       # Number of NVM write bursts
system.nvm_ctrl.nvm.perBankRdBursts::0              8                       # Per bank write bursts
system.nvm_ctrl.nvm.perBankRdBursts::1              9                       # Per bank write bursts
system.nvm_ctrl.nvm.perBankRdBursts::2             12                       # Per bank write bursts
system.nvm_ctrl.nvm.perBankRdBursts::3             12                       # Per bank write bursts
system.nvm_ctrl.nvm.perBankRdBursts::4             12                       # Per bank write bursts
system.nvm_ctrl.nvm.perBankRdBursts::5             12                       # Per bank write bursts
system.nvm_ctrl.nvm.perBankRdBursts::6             12                       # Per bank write bursts
system.nvm_ctrl.nvm.perBankRdBursts::7             12                       # Per bank write bursts
system.nvm_ctrl.nvm.perBankRdBursts::8             16                       # Per bank write bursts
system.nvm_ctrl.nvm.perBankRdBursts::9             12                       # Per bank write bursts
system.nvm_ctrl.nvm.perBankRdBursts::10            12                       # Per bank write bursts
system.nvm_ctrl.nvm.perBankRdBursts::11            13                       # Per bank write bursts
system.nvm_ctrl.nvm.perBankRdBursts::12             6                       # Per bank write bursts
system.nvm_ctrl.nvm.perBankRdBursts::13             4                       # Per bank write bursts
system.nvm_ctrl.nvm.perBankRdBursts::14             4                       # Per bank write bursts
system.nvm_ctrl.nvm.perBankRdBursts::15             4                       # Per bank write bursts
system.nvm_ctrl.nvm.perBankWrBursts::0              0                       # Per bank write bursts
system.nvm_ctrl.nvm.perBankWrBursts::1              0                       # Per bank write bursts
system.nvm_ctrl.nvm.perBankWrBursts::2              0                       # Per bank write bursts
system.nvm_ctrl.nvm.perBankWrBursts::3              0                       # Per bank write bursts
system.nvm_ctrl.nvm.perBankWrBursts::4              0                       # Per bank write bursts
system.nvm_ctrl.nvm.perBankWrBursts::5              0                       # Per bank write bursts
system.nvm_ctrl.nvm.perBankWrBursts::6              0                       # Per bank write bursts
system.nvm_ctrl.nvm.perBankWrBursts::7              0                       # Per bank write bursts
system.nvm_ctrl.nvm.perBankWrBursts::8              0                       # Per bank write bursts
system.nvm_ctrl.nvm.perBankWrBursts::9              0                       # Per bank write bursts
system.nvm_ctrl.nvm.perBankWrBursts::10             0                       # Per bank write bursts
system.nvm_ctrl.nvm.perBankWrBursts::11             0                       # Per bank write bursts
system.nvm_ctrl.nvm.perBankWrBursts::12             0                       # Per bank write bursts
system.nvm_ctrl.nvm.perBankWrBursts::13             0                       # Per bank write bursts
system.nvm_ctrl.nvm.perBankWrBursts::14             0                       # Per bank write bursts
system.nvm_ctrl.nvm.perBankWrBursts::15             0                       # Per bank write bursts
system.nvm_ctrl.nvm.totQLat                    215000                       # Total ticks spent queuing
system.nvm_ctrl.nvm.totBusLat                  533120                       # Total ticks spent in databus transfers
system.nvm_ctrl.nvm.totMemAccLat              3013720                       # Total ticks spent from burst creation until serviced by the NVM
system.nvm_ctrl.nvm.avgQLat                   1343.75                       # Average queueing delay per NVM burst
system.nvm_ctrl.nvm.avgBusLat                 3332.00                       # Average bus latency per NVM burst
system.nvm_ctrl.nvm.avgMemAccLat             18835.75                       # Average memory access latency per NVM burst
system.nvm_ctrl.nvm.bytesRead                   10240                       # Total number of bytes read from DRAM
system.nvm_ctrl.nvm.bytesWritten                    0                       # Total number of bytes written to DRAM
system.nvm_ctrl.nvm.avgRdBW                      0.05                       # Average DRAM read bandwidth in MiBytes/s
system.nvm_ctrl.nvm.avgWrBW                      0.00                       # Average DRAM write bandwidth in MiBytes/s
system.nvm_ctrl.nvm.peakBW                   19207.00                       # Theoretical peak bandwidth in MiByte/s
system.nvm_ctrl.nvm.busUtil                      0.00                       # NVM Data bus utilization in percentage
system.nvm_ctrl.nvm.busUtilRead                  0.00                       # NVM Data bus read utilization in percentage
system.nvm_ctrl.nvm.busUtilWrite                 0.00                       # NVM Data bus write utilization in percentage
system.nvm_ctrl.nvm.pendingReads::samples          160                       # Reads issued to NVM for which data has not been transferred
system.nvm_ctrl.nvm.pendingReads::0               160    100.00%    100.00% # Reads issued to NVM for which data has not been transferred
system.nvm_ctrl.nvm.pendingReads::total           160                       # Reads issued to NVM for which data has not been transferred
system.nvm_ctrl.nvm.bytesPerBank::samples           43                       # Bytes read within a bank before loading new bank
system.nvm_ctrl.nvm.bytesPerBank::mean     169.674419                       # Bytes read within a bank before loading new bank
system.nvm_ctrl.nvm.bytesPerBank::gmean    138.743759                       # Bytes read within a bank before loading new bank
system.nvm_ctrl.nvm.bytesPerBank::stdev     94.601853                       # Bytes read within a bank before loading new bank
system.nvm_ctrl.nvm.bytesPerBank::64-65            18     41.86%     41.86% # Bytes read within a bank before loading new bank
system.nvm_ctrl.nvm.bytesPerBank::128-129            2      4.65%     46.51% # Bytes read within a bank before loading new bank
system.nvm_ctrl.nvm.bytesPerBank::256-257           23     53.49%    100.00% # Bytes read within a bank before loading new bank
system.nvm_ctrl.nvm.bytesPerBank::total            43                       # Bytes read within a bank before loading new bank
system.nvm_ctrl.nvm.power_state.pwrStateResidencyTicks::UNDEFINED 200436427000                       # Cumulative time (in ticks) in various power states
system.nvm_ctrl.power_state.pwrStateResidencyTicks::UNDEFINED 200436427000                       # Cumulative time (in ticks) in various power states

---------- End Simulation Statistics   ----------
