
---------- Begin Simulation Statistics ----------
final_tick                                13538062000                       # Number of ticks from beginning of simulation (restored from checkpoints and never reset)
host_inst_rate                                 233315                       # Simulator instruction rate (inst/s)
host_mem_usage                                1404476                       # Number of bytes of host memory used
host_op_rate                                   429012                       # Simulator op (including micro ops) rate (op/s)
host_seconds                                    53.05                       # Real time elapsed on the host
host_tick_rate                              255216837                       # Simulator tick rate (ticks/s)
sim_freq                                 1000000000000                       # Frequency of simulated ticks
sim_insts                                    12376256                       # Number of instructions simulated
sim_ops                                      22757068                       # Number of ops (including micro ops) simulated
sim_seconds                                  0.013538                       # Number of seconds simulated
sim_ticks                                 13538062000                       # Number of ticks simulated
system.cpu0.Branches                           597868                       # Number of branches fetched
system.cpu0.committedInsts                    3094064                       # Number of instructions committed
system.cpu0.committedOps                      5689267                       # Number of ops (including micro ops) committed
system.cpu0.idle_fraction                    0.020207                       # Percentage of idle cycles
system.cpu0.not_idle_fraction                0.979793                       # Percentage of non-idle cycles
system.cpu0.numCycles                        13264494                       # number of cpu cycles simulated
system.cpu0.numWorkItemsCompleted                   0                       # number of work items this cpu completed
system.cpu0.numWorkItemsStarted                     0                       # number of work items this cpu started
system.cpu0.num_busy_cycles              12996454.076148                       # Number of busy cycles
system.cpu0.num_cc_register_reads             2791531                       # number of times the CC registers were read
system.cpu0.num_cc_register_writes            1722021                       # number of times the CC registers were written
system.cpu0.num_conditional_control_insts       428621                       # number of instructions that are conditional controls
system.cpu0.num_fp_alu_accesses                459095                       # Number of float alu accesses
system.cpu0.num_fp_insts                       459095                       # number of float instructions
system.cpu0.num_fp_register_reads              571186                       # number of times the floating registers were read
system.cpu0.num_fp_register_writes             387232                       # number of times the floating registers were written
system.cpu0.num_func_calls                      99742                       # number of times a function call or return occured
system.cpu0.num_idle_cycles              268039.923852                       # Number of idle cycles
system.cpu0.num_int_alu_accesses              5323823                       # Number of integer alu accesses
system.cpu0.num_int_insts                     5323823                       # number of integer instructions
system.cpu0.num_int_register_reads           10623046                       # number of times the integer registers were read
system.cpu0.num_int_register_writes           4264619                       # number of times the integer registers were written
system.cpu0.num_load_insts                     807081                       # Number of load instructions
system.cpu0.num_mem_refs                      1256359                       # number of memory refs
system.cpu0.num_store_insts                    449278                       # Number of store instructions
system.cpu0.num_vec_alu_accesses                    0                       # Number of vector alu accesses
system.cpu0.num_vec_insts                           0                       # number of vector instructions
system.cpu0.num_vec_register_reads                  0                       # number of times the vector registers were read
system.cpu0.num_vec_register_writes                 0                       # number of times the vector registers were written
system.cpu0.op_class::No_OpClass                79275      1.39%      1.39% # Class of executed instruction
system.cpu0.op_class::IntAlu                  4038502     70.98%     72.38% # Class of executed instruction
system.cpu0.op_class::IntMult                    8176      0.14%     72.52% # Class of executed instruction
system.cpu0.op_class::IntDiv                    37338      0.66%     73.18% # Class of executed instruction
system.cpu0.op_class::FloatAdd                  85157      1.50%     74.67% # Class of executed instruction
system.cpu0.op_class::FloatCmp                      0      0.00%     74.67% # Class of executed instruction
system.cpu0.op_class::FloatCvt                      0      0.00%     74.67% # Class of executed instruction
system.cpu0.op_class::FloatMult                     0      0.00%     74.67% # Class of executed instruction
system.cpu0.op_class::FloatMultAcc                  0      0.00%     74.67% # Class of executed instruction
system.cpu0.op_class::FloatDiv                      0      0.00%     74.67% # Class of executed instruction
system.cpu0.op_class::FloatMisc                     0      0.00%     74.67% # Class of executed instruction
system.cpu0.op_class::FloatSqrt                     0      0.00%     74.67% # Class of executed instruction
system.cpu0.op_class::SimdAdd                       0      0.00%     74.67% # Class of executed instruction
system.cpu0.op_class::SimdAddAcc                    0      0.00%     74.67% # Class of executed instruction
system.cpu0.op_class::SimdAlu                   30822      0.54%     75.22% # Class of executed instruction
system.cpu0.op_class::SimdCmp                       0      0.00%     75.22% # Class of executed instruction
system.cpu0.op_class::SimdCvt                    7734      0.14%     75.35% # Class of executed instruction
system.cpu0.op_class::SimdMisc                  29273      0.51%     75.87% # Class of executed instruction
system.cpu0.op_class::SimdMult                      0      0.00%     75.87% # Class of executed instruction
system.cpu0.op_class::SimdMultAcc                   0      0.00%     75.87% # Class of executed instruction
system.cpu0.op_class::SimdShift                     0      0.00%     75.87% # Class of executed instruction
system.cpu0.op_class::SimdShiftAcc                  0      0.00%     75.87% # Class of executed instruction
system.cpu0.op_class::SimdDiv                       0      0.00%     75.87% # Class of executed instruction
system.cpu0.op_class::SimdSqrt                      0      0.00%     75.87% # Class of executed instruction
system.cpu0.op_class::SimdFloatAdd              49316      0.87%     76.73% # Class of executed instruction
system.cpu0.op_class::SimdFloatAlu                  0      0.00%     76.73% # Class of executed instruction
system.cpu0.op_class::SimdFloatCmp                  0      0.00%     76.73% # Class of executed instruction
system.cpu0.op_class::SimdFloatCvt              30932      0.54%     77.28% # Class of executed instruction
system.cpu0.op_class::SimdFloatDiv                527      0.01%     77.29% # Class of executed instruction
system.cpu0.op_class::SimdFloatMisc                 0      0.00%     77.29% # Class of executed instruction
system.cpu0.op_class::SimdFloatMult             35880      0.63%     77.92% # Class of executed instruction
system.cpu0.op_class::SimdFloatMultAcc              0      0.00%     77.92% # Class of executed instruction
system.cpu0.op_class::SimdFloatSqrt                 0      0.00%     77.92% # Class of executed instruction
system.cpu0.op_class::SimdReduceAdd                 0      0.00%     77.92% # Class of executed instruction
system.cpu0.op_class::SimdReduceAlu                 0      0.00%     77.92% # Class of executed instruction
system.cpu0.op_class::SimdReduceCmp                 0      0.00%     77.92% # Class of executed instruction
system.cpu0.op_class::SimdFloatReduceAdd            0      0.00%     77.92% # Class of executed instruction
system.cpu0.op_class::SimdFloatReduceCmp            0      0.00%     77.92% # Class of executed instruction
system.cpu0.op_class::SimdAes                       0      0.00%     77.92% # Class of executed instruction
system.cpu0.op_class::SimdAesMix                    0      0.00%     77.92% # Class of executed instruction
system.cpu0.op_class::SimdSha1Hash                  0      0.00%     77.92% # Class of executed instruction
system.cpu0.op_class::SimdSha1Hash2                 0      0.00%     77.92% # Class of executed instruction
system.cpu0.op_class::SimdSha256Hash                0      0.00%     77.92% # Class of executed instruction
system.cpu0.op_class::SimdSha256Hash2               0      0.00%     77.92% # Class of executed instruction
system.cpu0.op_class::SimdShaSigma2                 0      0.00%     77.92% # Class of executed instruction
system.cpu0.op_class::SimdShaSigma3                 0      0.00%     77.92% # Class of executed instruction
system.cpu0.op_class::SimdPredAlu                   0      0.00%     77.92% # Class of executed instruction
system.cpu0.op_class::MemRead                  709850     12.48%     90.39% # Class of executed instruction
system.cpu0.op_class::MemWrite                 393582      6.92%     97.31% # Class of executed instruction
system.cpu0.op_class::FloatMemRead              97231      1.71%     99.02% # Class of executed instruction
system.cpu0.op_class::FloatMemWrite             55696      0.98%    100.00% # Class of executed instruction
system.cpu0.op_class::IprAccess                     0      0.00%    100.00% # Class of executed instruction
system.cpu0.op_class::InstPrefetch                  0      0.00%    100.00% # Class of executed instruction
system.cpu0.op_class::total                   5689291                       # Class of executed instruction
system.cpu0.workload.numSyscalls                   19                       # Number of system calls
system.cpu1.Branches                           597868                       # Number of branches fetched
system.cpu1.committedInsts                    3094064                       # Number of instructions committed
system.cpu1.committedOps                      5689267                       # Number of ops (including micro ops) committed
system.cpu1.idle_fraction                    0.010128                       # Percentage of idle cycles
system.cpu1.not_idle_fraction                0.989872                       # Percentage of non-idle cycles
system.cpu1.numCycles                        13400949                       # number of cpu cycles simulated
system.cpu1.numWorkItemsCompleted                   0                       # number of work items this cpu completed
system.cpu1.numWorkItemsStarted                     0                       # number of work items this cpu started
system.cpu1.num_busy_cycles              13265224.674502                       # Number of busy cycles
system.cpu1.num_cc_register_reads             2791531                       # number of times the CC registers were read
system.cpu1.num_cc_register_writes            1722021                       # number of times the CC registers were written
system.cpu1.num_conditional_control_insts       428621                       # number of instructions that are conditional controls
system.cpu1.num_fp_alu_accesses                459095                       # Number of float alu accesses
system.cpu1.num_fp_insts                       459095                       # number of float instructions
system.cpu1.num_fp_register_reads              571186                       # number of times the floating registers were read
system.cpu1.num_fp_register_writes             387232                       # number of times the floating registers were written
system.cpu1.num_func_calls                      99742                       # number of times a function call or return occured
system.cpu1.num_idle_cycles              135724.325498                       # Number of idle cycles
system.cpu1.num_int_alu_accesses              5323823                       # Number of integer alu accesses
system.cpu1.num_int_insts                     5323823                       # number of integer instructions
system.cpu1.num_int_register_reads           10623046                       # number of times the integer registers were read
system.cpu1.num_int_register_writes           4264619                       # number of times the integer registers were written
system.cpu1.num_load_insts                     807081                       # Number of load instructions
system.cpu1.num_mem_refs                      1256359                       # number of memory refs
system.cpu1.num_store_insts                    449278                       # Number of store instructions
system.cpu1.num_vec_alu_accesses                    0                       # Number of vector alu accesses
system.cpu1.num_vec_insts                           0                       # number of vector instructions
system.cpu1.num_vec_register_reads                  0                       # number of times the vector registers were read
system.cpu1.num_vec_register_writes                 0                       # number of times the vector registers were written
system.cpu1.op_class::No_OpClass                79275      1.39%      1.39% # Class of executed instruction
system.cpu1.op_class::IntAlu                  4038502     70.98%     72.38% # Class of executed instruction
system.cpu1.op_class::IntMult                    8176      0.14%     72.52% # Class of executed instruction
system.cpu1.op_class::IntDiv                    37338      0.66%     73.18% # Class of executed instruction
system.cpu1.op_class::FloatAdd                  85157      1.50%     74.67% # Class of executed instruction
system.cpu1.op_class::FloatCmp                      0      0.00%     74.67% # Class of executed instruction
system.cpu1.op_class::FloatCvt                      0      0.00%     74.67% # Class of executed instruction
system.cpu1.op_class::FloatMult                     0      0.00%     74.67% # Class of executed instruction
system.cpu1.op_class::FloatMultAcc                  0      0.00%     74.67% # Class of executed instruction
system.cpu1.op_class::FloatDiv                      0      0.00%     74.67% # Class of executed instruction
system.cpu1.op_class::FloatMisc                     0      0.00%     74.67% # Class of executed instruction
system.cpu1.op_class::FloatSqrt                     0      0.00%     74.67% # Class of executed instruction
system.cpu1.op_class::SimdAdd                       0      0.00%     74.67% # Class of executed instruction
system.cpu1.op_class::SimdAddAcc                    0      0.00%     74.67% # Class of executed instruction
system.cpu1.op_class::SimdAlu                   30822      0.54%     75.22% # Class of executed instruction
system.cpu1.op_class::SimdCmp                       0      0.00%     75.22% # Class of executed instruction
system.cpu1.op_class::SimdCvt                    7734      0.14%     75.35% # Class of executed instruction
system.cpu1.op_class::SimdMisc                  29273      0.51%     75.87% # Class of executed instruction
system.cpu1.op_class::SimdMult                      0      0.00%     75.87% # Class of executed instruction
system.cpu1.op_class::SimdMultAcc                   0      0.00%     75.87% # Class of executed instruction
system.cpu1.op_class::SimdShift                     0      0.00%     75.87% # Class of executed instruction
system.cpu1.op_class::SimdShiftAcc                  0      0.00%     75.87% # Class of executed instruction
system.cpu1.op_class::SimdDiv                       0      0.00%     75.87% # Class of executed instruction
system.cpu1.op_class::SimdSqrt                      0      0.00%     75.87% # Class of executed instruction
system.cpu1.op_class::SimdFloatAdd              49316      0.87%     76.73% # Class of executed instruction
system.cpu1.op_class::SimdFloatAlu                  0      0.00%     76.73% # Class of executed instruction
system.cpu1.op_class::SimdFloatCmp                  0      0.00%     76.73% # Class of executed instruction
system.cpu1.op_class::SimdFloatCvt              30932      0.54%     77.28% # Class of executed instruction
system.cpu1.op_class::SimdFloatDiv                527      0.01%     77.29% # Class of executed instruction
system.cpu1.op_class::SimdFloatMisc                 0      0.00%     77.29% # Class of executed instruction
system.cpu1.op_class::SimdFloatMult             35880      0.63%     77.92% # Class of executed instruction
system.cpu1.op_class::SimdFloatMultAcc              0      0.00%     77.92% # Class of executed instruction
system.cpu1.op_class::SimdFloatSqrt                 0      0.00%     77.92% # Class of executed instruction
system.cpu1.op_class::SimdReduceAdd                 0      0.00%     77.92% # Class of executed instruction
system.cpu1.op_class::SimdReduceAlu                 0      0.00%     77.92% # Class of executed instruction
system.cpu1.op_class::SimdReduceCmp                 0      0.00%     77.92% # Class of executed instruction
system.cpu1.op_class::SimdFloatReduceAdd            0      0.00%     77.92% # Class of executed instruction
system.cpu1.op_class::SimdFloatReduceCmp            0      0.00%     77.92% # Class of executed instruction
system.cpu1.op_class::SimdAes                       0      0.00%     77.92% # Class of executed instruction
system.cpu1.op_class::SimdAesMix                    0      0.00%     77.92% # Class of executed instruction
system.cpu1.op_class::SimdSha1Hash                  0      0.00%     77.92% # Class of executed instruction
system.cpu1.op_class::SimdSha1Hash2                 0      0.00%     77.92% # Class of executed instruction
system.cpu1.op_class::SimdSha256Hash                0      0.00%     77.92% # Class of executed instruction
system.cpu1.op_class::SimdSha256Hash2               0      0.00%     77.92% # Class of executed instruction
system.cpu1.op_class::SimdShaSigma2                 0      0.00%     77.92% # Class of executed instruction
system.cpu1.op_class::SimdShaSigma3                 0      0.00%     77.92% # Class of executed instruction
system.cpu1.op_class::SimdPredAlu                   0      0.00%     77.92% # Class of executed instruction
system.cpu1.op_class::MemRead                  709850     12.48%     90.39% # Class of executed instruction
system.cpu1.op_class::MemWrite                 393582      6.92%     97.31% # Class of executed instruction
system.cpu1.op_class::FloatMemRead              97231      1.71%     99.02% # Class of executed instruction
system.cpu1.op_class::FloatMemWrite             55696      0.98%    100.00% # Class of executed instruction
system.cpu1.op_class::IprAccess                     0      0.00%    100.00% # Class of executed instruction
system.cpu1.op_class::InstPrefetch                  0      0.00%    100.00% # Class of executed instruction
system.cpu1.op_class::total                   5689291                       # Class of executed instruction
system.cpu1.workload.numSyscalls                   19                       # Number of system calls
system.cpu2.Branches                           597868                       # Number of branches fetched
system.cpu2.committedInsts                    3094064                       # Number of instructions committed
system.cpu2.committedOps                      5689267                       # Number of ops (including micro ops) committed
system.cpu2.idle_fraction                    0.000000                       # Percentage of idle cycles
system.cpu2.not_idle_fraction                1.000000                       # Percentage of non-idle cycles
system.cpu2.numCycles                        13538062                       # number of cpu cycles simulated
system.cpu2.numWorkItemsCompleted                   0                       # number of work items this cpu completed
system.cpu2.numWorkItemsStarted                     0                       # number of work items this cpu started
system.cpu2.num_busy_cycles              13538061.999000                       # Number of busy cycles
system.cpu2.num_cc_register_reads             2791531                       # number of times the CC registers were read
system.cpu2.num_cc_register_writes            1722021                       # number of times the CC registers were written
system.cpu2.num_conditional_control_insts       428621                       # number of instructions that are conditional controls
system.cpu2.num_fp_alu_accesses                459095                       # Number of float alu accesses
system.cpu2.num_fp_insts                       459095                       # number of float instructions
system.cpu2.num_fp_register_reads              571186                       # number of times the floating registers were read
system.cpu2.num_fp_register_writes             387232                       # number of times the floating registers were written
system.cpu2.num_func_calls                      99742                       # number of times a function call or return occured
system.cpu2.num_idle_cycles                  0.001000                       # Number of idle cycles
system.cpu2.num_int_alu_accesses              5323823                       # Number of integer alu accesses
system.cpu2.num_int_insts                     5323823                       # number of integer instructions
system.cpu2.num_int_register_reads           10623046                       # number of times the integer registers were read
system.cpu2.num_int_register_writes           4264619                       # number of times the integer registers were written
system.cpu2.num_load_insts                     807081                       # Number of load instructions
system.cpu2.num_mem_refs                      1256359                       # number of memory refs
system.cpu2.num_store_insts                    449278                       # Number of store instructions
system.cpu2.num_vec_alu_accesses                    0                       # Number of vector alu accesses
system.cpu2.num_vec_insts                           0                       # number of vector instructions
system.cpu2.num_vec_register_reads                  0                       # number of times the vector registers were read
system.cpu2.num_vec_register_writes                 0                       # number of times the vector registers were written
system.cpu2.op_class::No_OpClass                79275      1.39%      1.39% # Class of executed instruction
system.cpu2.op_class::IntAlu                  4038502     70.98%     72.38% # Class of executed instruction
system.cpu2.op_class::IntMult                    8176      0.14%     72.52% # Class of executed instruction
system.cpu2.op_class::IntDiv                    37338      0.66%     73.18% # Class of executed instruction
system.cpu2.op_class::FloatAdd                  85157      1.50%     74.67% # Class of executed instruction
system.cpu2.op_class::FloatCmp                      0      0.00%     74.67% # Class of executed instruction
system.cpu2.op_class::FloatCvt                      0      0.00%     74.67% # Class of executed instruction
system.cpu2.op_class::FloatMult                     0      0.00%     74.67% # Class of executed instruction
system.cpu2.op_class::FloatMultAcc                  0      0.00%     74.67% # Class of executed instruction
system.cpu2.op_class::FloatDiv                      0      0.00%     74.67% # Class of executed instruction
system.cpu2.op_class::FloatMisc                     0      0.00%     74.67% # Class of executed instruction
system.cpu2.op_class::FloatSqrt                     0      0.00%     74.67% # Class of executed instruction
system.cpu2.op_class::SimdAdd                       0      0.00%     74.67% # Class of executed instruction
system.cpu2.op_class::SimdAddAcc                    0      0.00%     74.67% # Class of executed instruction
system.cpu2.op_class::SimdAlu                   30822      0.54%     75.22% # Class of executed instruction
system.cpu2.op_class::SimdCmp                       0      0.00%     75.22% # Class of executed instruction
system.cpu2.op_class::SimdCvt                    7734      0.14%     75.35% # Class of executed instruction
system.cpu2.op_class::SimdMisc                  29273      0.51%     75.87% # Class of executed instruction
system.cpu2.op_class::SimdMult                      0      0.00%     75.87% # Class of executed instruction
system.cpu2.op_class::SimdMultAcc                   0      0.00%     75.87% # Class of executed instruction
system.cpu2.op_class::SimdShift                     0      0.00%     75.87% # Class of executed instruction
system.cpu2.op_class::SimdShiftAcc                  0      0.00%     75.87% # Class of executed instruction
system.cpu2.op_class::SimdDiv                       0      0.00%     75.87% # Class of executed instruction
system.cpu2.op_class::SimdSqrt                      0      0.00%     75.87% # Class of executed instruction
system.cpu2.op_class::SimdFloatAdd              49316      0.87%     76.73% # Class of executed instruction
system.cpu2.op_class::SimdFloatAlu                  0      0.00%     76.73% # Class of executed instruction
system.cpu2.op_class::SimdFloatCmp                  0      0.00%     76.73% # Class of executed instruction
system.cpu2.op_class::SimdFloatCvt              30932      0.54%     77.28% # Class of executed instruction
system.cpu2.op_class::SimdFloatDiv                527      0.01%     77.29% # Class of executed instruction
system.cpu2.op_class::SimdFloatMisc                 0      0.00%     77.29% # Class of executed instruction
system.cpu2.op_class::SimdFloatMult             35880      0.63%     77.92% # Class of executed instruction
system.cpu2.op_class::SimdFloatMultAcc              0      0.00%     77.92% # Class of executed instruction
system.cpu2.op_class::SimdFloatSqrt                 0      0.00%     77.92% # Class of executed instruction
system.cpu2.op_class::SimdReduceAdd                 0      0.00%     77.92% # Class of executed instruction
system.cpu2.op_class::SimdReduceAlu                 0      0.00%     77.92% # Class of executed instruction
system.cpu2.op_class::SimdReduceCmp                 0      0.00%     77.92% # Class of executed instruction
system.cpu2.op_class::SimdFloatReduceAdd            0      0.00%     77.92% # Class of executed instruction
system.cpu2.op_class::SimdFloatReduceCmp            0      0.00%     77.92% # Class of executed instruction
system.cpu2.op_class::SimdAes                       0      0.00%     77.92% # Class of executed instruction
system.cpu2.op_class::SimdAesMix                    0      0.00%     77.92% # Class of executed instruction
system.cpu2.op_class::SimdSha1Hash                  0      0.00%     77.92% # Class of executed instruction
system.cpu2.op_class::SimdSha1Hash2                 0      0.00%     77.92% # Class of executed instruction
system.cpu2.op_class::SimdSha256Hash                0      0.00%     77.92% # Class of executed instruction
system.cpu2.op_class::SimdSha256Hash2               0      0.00%     77.92% # Class of executed instruction
system.cpu2.op_class::SimdShaSigma2                 0      0.00%     77.92% # Class of executed instruction
system.cpu2.op_class::SimdShaSigma3                 0      0.00%     77.92% # Class of executed instruction
system.cpu2.op_class::SimdPredAlu                   0      0.00%     77.92% # Class of executed instruction
system.cpu2.op_class::MemRead                  709850     12.48%     90.39% # Class of executed instruction
system.cpu2.op_class::MemWrite                 393582      6.92%     97.31% # Class of executed instruction
system.cpu2.op_class::FloatMemRead              97231      1.71%     99.02% # Class of executed instruction
system.cpu2.op_class::FloatMemWrite             55696      0.98%    100.00% # Class of executed instruction
system.cpu2.op_class::IprAccess                     0      0.00%    100.00% # Class of executed instruction
system.cpu2.op_class::InstPrefetch                  0      0.00%    100.00% # Class of executed instruction
system.cpu2.op_class::total                   5689291                       # Class of executed instruction
system.cpu2.workload.numSyscalls                   19                       # Number of system calls
system.cpu3.Branches                           597868                       # Number of branches fetched
system.cpu3.committedInsts                    3094064                       # Number of instructions committed
system.cpu3.committedOps                      5689267                       # Number of ops (including micro ops) committed
system.cpu3.idle_fraction                    0.009660                       # Percentage of idle cycles
system.cpu3.not_idle_fraction                0.990340                       # Percentage of non-idle cycles
system.cpu3.numCycles                        13407286                       # number of cpu cycles simulated
system.cpu3.numWorkItemsCompleted                   0                       # number of work items this cpu completed
system.cpu3.numWorkItemsStarted                     0                       # number of work items this cpu started
system.cpu3.num_busy_cycles              13277773.278961                       # Number of busy cycles
system.cpu3.num_cc_register_reads             2791531                       # number of times the CC registers were read
system.cpu3.num_cc_register_writes            1722021                       # number of times the CC registers were written
system.cpu3.num_conditional_control_insts       428621                       # number of instructions that are conditional controls
system.cpu3.num_fp_alu_accesses                459095                       # Number of float alu accesses
system.cpu3.num_fp_insts                       459095                       # number of float instructions
system.cpu3.num_fp_register_reads              571186                       # number of times the floating registers were read
system.cpu3.num_fp_register_writes             387232                       # number of times the floating registers were written
system.cpu3.num_func_calls                      99742                       # number of times a function call or return occured
system.cpu3.num_idle_cycles              129512.721039                       # Number of idle cycles
system.cpu3.num_int_alu_accesses              5323823                       # Number of integer alu accesses
system.cpu3.num_int_insts                     5323823                       # number of integer instructions
system.cpu3.num_int_register_reads           10623046                       # number of times the integer registers were read
system.cpu3.num_int_register_writes           4264619                       # number of times the integer registers were written
system.cpu3.num_load_insts                     807081                       # Number of load instructions
system.cpu3.num_mem_refs                      1256359                       # number of memory refs
system.cpu3.num_store_insts                    449278                       # Number of store instructions
system.cpu3.num_vec_alu_accesses                    0                       # Number of vector alu accesses
system.cpu3.num_vec_insts                           0                       # number of vector instructions
system.cpu3.num_vec_register_reads                  0                       # number of times the vector registers were read
system.cpu3.num_vec_register_writes                 0                       # number of times the vector registers were written
system.cpu3.op_class::No_OpClass                79275      1.39%      1.39% # Class of executed instruction
system.cpu3.op_class::IntAlu                  4038502     70.98%     72.38% # Class of executed instruction
system.cpu3.op_class::IntMult                    8176      0.14%     72.52% # Class of executed instruction
system.cpu3.op_class::IntDiv                    37338      0.66%     73.18% # Class of executed instruction
system.cpu3.op_class::FloatAdd                  85157      1.50%     74.67% # Class of executed instruction
system.cpu3.op_class::FloatCmp                      0      0.00%     74.67% # Class of executed instruction
system.cpu3.op_class::FloatCvt                      0      0.00%     74.67% # Class of executed instruction
system.cpu3.op_class::FloatMult                     0      0.00%     74.67% # Class of executed instruction
system.cpu3.op_class::FloatMultAcc                  0      0.00%     74.67% # Class of executed instruction
system.cpu3.op_class::FloatDiv                      0      0.00%     74.67% # Class of executed instruction
system.cpu3.op_class::FloatMisc                     0      0.00%     74.67% # Class of executed instruction
system.cpu3.op_class::FloatSqrt                     0      0.00%     74.67% # Class of executed instruction
system.cpu3.op_class::SimdAdd                       0      0.00%     74.67% # Class of executed instruction
system.cpu3.op_class::SimdAddAcc                    0      0.00%     74.67% # Class of executed instruction
system.cpu3.op_class::SimdAlu                   30822      0.54%     75.22% # Class of executed instruction
system.cpu3.op_class::SimdCmp                       0      0.00%     75.22% # Class of executed instruction
system.cpu3.op_class::SimdCvt                    7734      0.14%     75.35% # Class of executed instruction
system.cpu3.op_class::SimdMisc                  29273      0.51%     75.87% # Class of executed instruction
system.cpu3.op_class::SimdMult                      0      0.00%     75.87% # Class of executed instruction
system.cpu3.op_class::SimdMultAcc                   0      0.00%     75.87% # Class of executed instruction
system.cpu3.op_class::SimdShift                     0      0.00%     75.87% # Class of executed instruction
system.cpu3.op_class::SimdShiftAcc                  0      0.00%     75.87% # Class of executed instruction
system.cpu3.op_class::SimdDiv                       0      0.00%     75.87% # Class of executed instruction
system.cpu3.op_class::SimdSqrt                      0      0.00%     75.87% # Class of executed instruction
system.cpu3.op_class::SimdFloatAdd              49316      0.87%     76.73% # Class of executed instruction
system.cpu3.op_class::SimdFloatAlu                  0      0.00%     76.73% # Class of executed instruction
system.cpu3.op_class::SimdFloatCmp                  0      0.00%     76.73% # Class of executed instruction
system.cpu3.op_class::SimdFloatCvt              30932      0.54%     77.28% # Class of executed instruction
system.cpu3.op_class::SimdFloatDiv                527      0.01%     77.29% # Class of executed instruction
system.cpu3.op_class::SimdFloatMisc                 0      0.00%     77.29% # Class of executed instruction
system.cpu3.op_class::SimdFloatMult             35880      0.63%     77.92% # Class of executed instruction
system.cpu3.op_class::SimdFloatMultAcc              0      0.00%     77.92% # Class of executed instruction
system.cpu3.op_class::SimdFloatSqrt                 0      0.00%     77.92% # Class of executed instruction
system.cpu3.op_class::SimdReduceAdd                 0      0.00%     77.92% # Class of executed instruction
system.cpu3.op_class::SimdReduceAlu                 0      0.00%     77.92% # Class of executed instruction
system.cpu3.op_class::SimdReduceCmp                 0      0.00%     77.92% # Class of executed instruction
system.cpu3.op_class::SimdFloatReduceAdd            0      0.00%     77.92% # Class of executed instruction
system.cpu3.op_class::SimdFloatReduceCmp            0      0.00%     77.92% # Class of executed instruction
system.cpu3.op_class::SimdAes                       0      0.00%     77.92% # Class of executed instruction
system.cpu3.op_class::SimdAesMix                    0      0.00%     77.92% # Class of executed instruction
system.cpu3.op_class::SimdSha1Hash                  0      0.00%     77.92% # Class of executed instruction
system.cpu3.op_class::SimdSha1Hash2                 0      0.00%     77.92% # Class of executed instruction
system.cpu3.op_class::SimdSha256Hash                0      0.00%     77.92% # Class of executed instruction
system.cpu3.op_class::SimdSha256Hash2               0      0.00%     77.92% # Class of executed instruction
system.cpu3.op_class::SimdShaSigma2                 0      0.00%     77.92% # Class of executed instruction
system.cpu3.op_class::SimdShaSigma3                 0      0.00%     77.92% # Class of executed instruction
system.cpu3.op_class::SimdPredAlu                   0      0.00%     77.92% # Class of executed instruction
system.cpu3.op_class::MemRead                  709850     12.48%     90.39% # Class of executed instruction
system.cpu3.op_class::MemWrite                 393582      6.92%     97.31% # Class of executed instruction
system.cpu3.op_class::FloatMemRead              97231      1.71%     99.02% # Class of executed instruction
system.cpu3.op_class::FloatMemWrite             55696      0.98%    100.00% # Class of executed instruction
system.cpu3.op_class::IprAccess                     0      0.00%    100.00% # Class of executed instruction
system.cpu3.op_class::InstPrefetch                  0      0.00%    100.00% # Class of executed instruction
system.cpu3.op_class::total                   5689291                       # Class of executed instruction
system.cpu3.workload.numSyscalls                   19                       # Number of system calls
system.noc_network.Directory.incomplete_times_seqr       139500                      
system.noc_network.Directory.miss_latency_hist_seqr.first_response_to_completion::bucket_size           16                      
system.noc_network.Directory.miss_latency_hist_seqr.first_response_to_completion::max_bucket          159                      
system.noc_network.Directory.miss_latency_hist_seqr.first_response_to_completion::samples            4                      
system.noc_network.Directory.miss_latency_hist_seqr.first_response_to_completion::mean           75                      
system.noc_network.Directory.miss_latency_hist_seqr.first_response_to_completion::gmean    74.563516                      
system.noc_network.Directory.miss_latency_hist_seqr.first_response_to_completion::stdev     9.309493                      
system.noc_network.Directory.miss_latency_hist_seqr.first_response_to_completion |           0      0.00%      0.00% |           0      0.00%      0.00% |           0      0.00%      0.00% |           0      0.00%      0.00% |           3     75.00%     75.00% |           1     25.00%    100.00% |           0      0.00%    100.00% |           0      0.00%    100.00% |           0      0.00%    100.00% |           0      0.00%    100.00%
system.noc_network.Directory.miss_latency_hist_seqr.first_response_to_completion::total            4                      
system.noc_network.Directory.miss_latency_hist_seqr.forward_to_first_response::bucket_size            1                      
system.noc_network.Directory.miss_latency_hist_seqr.forward_to_first_response::max_bucket            9                      
system.noc_network.Directory.miss_latency_hist_seqr.forward_to_first_response::samples            4                      
system.noc_network.Directory.miss_latency_hist_seqr.forward_to_first_response |           4    100.00%    100.00% |           0      0.00%    100.00% |           0      0.00%    100.00% |           0      0.00%    100.00% |           0      0.00%    100.00% |           0      0.00%    100.00% |           0      0.00%    100.00% |           0      0.00%    100.00% |           0      0.00%    100.00% |           0      0.00%    100.00%
system.noc_network.Directory.miss_latency_hist_seqr.forward_to_first_response::total            4                      
system.noc_network.Directory.miss_latency_hist_seqr.initial_to_forward::bucket_size            1                      
system.noc_network.Directory.miss_latency_hist_seqr.initial_to_forward::max_bucket            9                      
system.noc_network.Directory.miss_latency_hist_seqr.initial_to_forward::samples            4                      
system.noc_network.Directory.miss_latency_hist_seqr.initial_to_forward |           4    100.00%    100.00% |           0      0.00%    100.00% |           0      0.00%    100.00% |           0      0.00%    100.00% |           0      0.00%    100.00% |           0      0.00%    100.00% |           0      0.00%    100.00% |           0      0.00%    100.00% |           0      0.00%    100.00% |           0      0.00%    100.00%
system.noc_network.Directory.miss_latency_hist_seqr.initial_to_forward::total            4                      
system.noc_network.Directory.miss_latency_hist_seqr.issue_to_initial_request::bucket_size            1                      
system.noc_network.Directory.miss_latency_hist_seqr.issue_to_initial_request::max_bucket            9                      
system.noc_network.Directory.miss_latency_hist_seqr.issue_to_initial_request::samples            4                      
system.noc_network.Directory.miss_latency_hist_seqr.issue_to_initial_request |           4    100.00%    100.00% |           0      0.00%    100.00% |           0      0.00%    100.00% |           0      0.00%    100.00% |           0      0.00%    100.00% |           0      0.00%    100.00% |           0      0.00%    100.00% |           0      0.00%    100.00% |           0      0.00%    100.00% |           0      0.00%    100.00%
system.noc_network.Directory.miss_latency_hist_seqr.issue_to_initial_request::total            4                      
system.noc_network.Directory.miss_mach_latency_hist_seqr::bucket_size           16                      
system.noc_network.Directory.miss_mach_latency_hist_seqr::max_bucket          159                      
system.noc_network.Directory.miss_mach_latency_hist_seqr::samples       139504                      
system.noc_network.Directory.miss_mach_latency_hist_seqr::mean     0.002150                      
system.noc_network.Directory.miss_mach_latency_hist_seqr::stdev     0.403913                      
system.noc_network.Directory.miss_mach_latency_hist_seqr |      139500    100.00%    100.00% |           0      0.00%    100.00% |           0      0.00%    100.00% |           0      0.00%    100.00% |           3      0.00%    100.00% |           1      0.00%    100.00% |           0      0.00%    100.00% |           0      0.00%    100.00% |           0      0.00%    100.00% |           0      0.00%    100.00%
system.noc_network.Directory.miss_mach_latency_hist_seqr::total       139504                      
system.noc_network.Directory_Controller.GETX |      134368     96.32%     96.32% |        5136      3.68%    100.00%
system.noc_network.Directory_Controller.GETX::total       139504                      
system.noc_network.Directory_Controller.I.GETX |      134368     96.32%     96.32% |        5136      3.68%    100.00%
system.noc_network.Directory_Controller.I.GETX::total       139504                      
system.noc_network.Directory_Controller.IM.Memory_Data |      134368     96.32%     96.32% |        5136      3.68%    100.00%
system.noc_network.Directory_Controller.IM.Memory_Data::total       139504                      
system.noc_network.Directory_Controller.M.PUTX |      133364     96.31%     96.31% |        5116      3.69%    100.00%
system.noc_network.Directory_Controller.M.PUTX::total       138480                      
system.noc_network.Directory_Controller.MI.Memory_Ack |      133364     96.31%     96.31% |        5116      3.69%    100.00%
system.noc_network.Directory_Controller.MI.Memory_Ack::total       138480                      
system.noc_network.Directory_Controller.Memory_Ack |      133364     96.31%     96.31% |        5116      3.69%    100.00%
system.noc_network.Directory_Controller.Memory_Ack::total       138480                      
system.noc_network.Directory_Controller.Memory_Data |      134368     96.32%     96.32% |        5136      3.68%    100.00%
system.noc_network.Directory_Controller.Memory_Data::total       139504                      
system.noc_network.Directory_Controller.PUTX |      133364     96.31%     96.31% |        5116      3.69%    100.00%
system.noc_network.Directory_Controller.PUTX::total       138480                      
system.noc_network.IFETCH.Directory.miss_type_mach_latency_hist_seqr::bucket_size           16                      
system.noc_network.IFETCH.Directory.miss_type_mach_latency_hist_seqr::max_bucket          159                      
system.noc_network.IFETCH.Directory.miss_type_mach_latency_hist_seqr::samples       104092                      
system.noc_network.IFETCH.Directory.miss_type_mach_latency_hist_seqr::mean     0.002882                      
system.noc_network.IFETCH.Directory.miss_type_mach_latency_hist_seqr::stdev     0.467597                      
system.noc_network.IFETCH.Directory.miss_type_mach_latency_hist_seqr |      104088    100.00%    100.00% |           0      0.00%    100.00% |           0      0.00%    100.00% |           0      0.00%    100.00% |           3      0.00%    100.00% |           1      0.00%    100.00% |           0      0.00%    100.00% |           0      0.00%    100.00% |           0      0.00%    100.00% |           0      0.00%    100.00%
system.noc_network.IFETCH.Directory.miss_type_mach_latency_hist_seqr::total       104092                      
system.noc_network.IFETCH.hit_latency_hist_seqr::bucket_size            1                      
system.noc_network.IFETCH.hit_latency_hist_seqr::max_bucket            9                      
system.noc_network.IFETCH.hit_latency_hist_seqr::samples     16289624                      
system.noc_network.IFETCH.hit_latency_hist_seqr |    16289624    100.00%    100.00% |           0      0.00%    100.00% |           0      0.00%    100.00% |           0      0.00%    100.00% |           0      0.00%    100.00% |           0      0.00%    100.00% |           0      0.00%    100.00% |           0      0.00%    100.00% |           0      0.00%    100.00% |           0      0.00%    100.00%
system.noc_network.IFETCH.hit_latency_hist_seqr::total     16289624                      
system.noc_network.IFETCH.latency_hist_seqr::bucket_size           16                      
system.noc_network.IFETCH.latency_hist_seqr::max_bucket          159                      
system.noc_network.IFETCH.latency_hist_seqr::samples     16393716                      
system.noc_network.IFETCH.latency_hist_seqr::mean     0.000018                      
system.noc_network.IFETCH.latency_hist_seqr::stdev     0.037260                      
system.noc_network.IFETCH.latency_hist_seqr |    16393712    100.00%    100.00% |           0      0.00%    100.00% |           0      0.00%    100.00% |           0      0.00%    100.00% |           3      0.00%    100.00% |           1      0.00%    100.00% |           0      0.00%    100.00% |           0      0.00%    100.00% |           0      0.00%    100.00% |           0      0.00%    100.00%
system.noc_network.IFETCH.latency_hist_seqr::total     16393716                      
system.noc_network.IFETCH.miss_latency_hist_seqr::bucket_size           16                      
system.noc_network.IFETCH.miss_latency_hist_seqr::max_bucket          159                      
system.noc_network.IFETCH.miss_latency_hist_seqr::samples       104092                      
system.noc_network.IFETCH.miss_latency_hist_seqr::mean     0.002882                      
system.noc_network.IFETCH.miss_latency_hist_seqr::stdev     0.467597                      
system.noc_network.IFETCH.miss_latency_hist_seqr |      104088    100.00%    100.00% |           0      0.00%    100.00% |           0      0.00%    100.00% |           0      0.00%    100.00% |           3      0.00%    100.00% |           1      0.00%    100.00% |           0      0.00%    100.00% |           0      0.00%    100.00% |           0      0.00%    100.00% |           0      0.00%    100.00%
system.noc_network.IFETCH.miss_latency_hist_seqr::total       104092                      
system.noc_network.L1Cache_Controller.Data |       34876     25.00%     25.00% |       34876     25.00%     50.00% |       34876     25.00%     75.00% |       34876     25.00%    100.00%
system.noc_network.L1Cache_Controller.Data::total       139504                      
system.noc_network.L1Cache_Controller.I.Ifetch |       26023     25.00%     25.00% |       26023     25.00%     50.00% |       26023     25.00%     75.00% |       26023     25.00%    100.00%
system.noc_network.L1Cache_Controller.I.Ifetch::total       104092                      
system.noc_network.L1Cache_Controller.I.Load |        6143     25.00%     25.00% |        6143     25.00%     50.00% |        6143     25.00%     75.00% |        6143     25.00%    100.00%
system.noc_network.L1Cache_Controller.I.Load::total        24572                      
system.noc_network.L1Cache_Controller.I.Store |        2710     25.00%     25.00% |        2710     25.00%     50.00% |        2710     25.00%     75.00% |        2710     25.00%    100.00%
system.noc_network.L1Cache_Controller.I.Store::total        10840                      
system.noc_network.L1Cache_Controller.IM.Data |        2710     25.00%     25.00% |        2710     25.00%     50.00% |        2710     25.00%     75.00% |        2710     25.00%    100.00%
system.noc_network.L1Cache_Controller.IM.Data::total        10840                      
system.noc_network.L1Cache_Controller.IS.Data |       32166     25.00%     25.00% |       32166     25.00%     50.00% |       32166     25.00%     75.00% |       32166     25.00%    100.00%
system.noc_network.L1Cache_Controller.IS.Data::total       128664                      
system.noc_network.L1Cache_Controller.Ifetch |     4098429     25.00%     25.00% |     4098429     25.00%     50.00% |     4098429     25.00%     75.00% |     4098429     25.00%    100.00%
system.noc_network.L1Cache_Controller.Ifetch::total     16393716                      
system.noc_network.L1Cache_Controller.Load |      783120     25.00%     25.00% |      783120     25.00%     50.00% |      783120     25.00%     75.00% |      783120     25.00%    100.00%
system.noc_network.L1Cache_Controller.Load::total      3132480                      
system.noc_network.L1Cache_Controller.M.Ifetch |     4072406     25.00%     25.00% |     4072406     25.00%     50.00% |     4072406     25.00%     75.00% |     4072406     25.00%    100.00%
system.noc_network.L1Cache_Controller.M.Ifetch::total     16289624                      
system.noc_network.L1Cache_Controller.M.Load |      776977     25.00%     25.00% |      776977     25.00%     50.00% |      776977     25.00%     75.00% |      776977     25.00%    100.00%
system.noc_network.L1Cache_Controller.M.Load::total      3107908                      
system.noc_network.L1Cache_Controller.M.Replacement |       34620     25.00%     25.00% |       34620     25.00%     50.00% |       34620     25.00%     75.00% |       34620     25.00%    100.00%
system.noc_network.L1Cache_Controller.M.Replacement::total       138480                      
system.noc_network.L1Cache_Controller.M.Store |      471315     25.00%     25.00% |      471315     25.00%     50.00% |      471315     25.00%     75.00% |      471315     25.00%    100.00%
system.noc_network.L1Cache_Controller.M.Store::total      1885260                      
system.noc_network.L1Cache_Controller.MI.Writeback_Ack |       34620     25.00%     25.00% |       34620     25.00%     50.00% |       34620     25.00%     75.00% |       34620     25.00%    100.00%
system.noc_network.L1Cache_Controller.MI.Writeback_Ack::total       138480                      
system.noc_network.L1Cache_Controller.Replacement |       34620     25.00%     25.00% |       34620     25.00%     50.00% |       34620     25.00%     75.00% |       34620     25.00%    100.00%
system.noc_network.L1Cache_Controller.Replacement::total       138480                      
system.noc_network.L1Cache_Controller.Store |      474025     25.00%     25.00% |      474025     25.00%     50.00% |      474025     25.00%     75.00% |      474025     25.00%    100.00%
system.noc_network.L1Cache_Controller.Store::total      1896100                      
system.noc_network.L1Cache_Controller.Writeback_Ack |       34620     25.00%     25.00% |       34620     25.00%     50.00% |       34620     25.00%     75.00% |       34620     25.00%    100.00%
system.noc_network.L1Cache_Controller.Writeback_Ack::total       138480                      
system.noc_network.LD.Directory.miss_type_mach_latency_hist_seqr::bucket_size            1                      
system.noc_network.LD.Directory.miss_type_mach_latency_hist_seqr::max_bucket            9                      
system.noc_network.LD.Directory.miss_type_mach_latency_hist_seqr::samples        24572                      
system.noc_network.LD.Directory.miss_type_mach_latency_hist_seqr |       24572    100.00%    100.00% |           0      0.00%    100.00% |           0      0.00%    100.00% |           0      0.00%    100.00% |           0      0.00%    100.00% |           0      0.00%    100.00% |           0      0.00%    100.00% |           0      0.00%    100.00% |           0      0.00%    100.00% |           0      0.00%    100.00%
system.noc_network.LD.Directory.miss_type_mach_latency_hist_seqr::total        24572                      
system.noc_network.LD.hit_latency_hist_seqr::bucket_size            1                      
system.noc_network.LD.hit_latency_hist_seqr::max_bucket            9                      
system.noc_network.LD.hit_latency_hist_seqr::samples      3107908                      
system.noc_network.LD.hit_latency_hist_seqr |     3107908    100.00%    100.00% |           0      0.00%    100.00% |           0      0.00%    100.00% |           0      0.00%    100.00% |           0      0.00%    100.00% |           0      0.00%    100.00% |           0      0.00%    100.00% |           0      0.00%    100.00% |           0      0.00%    100.00% |           0      0.00%    100.00%
system.noc_network.LD.hit_latency_hist_seqr::total      3107908                      
system.noc_network.LD.latency_hist_seqr::bucket_size            1                      
system.noc_network.LD.latency_hist_seqr::max_bucket            9                      
system.noc_network.LD.latency_hist_seqr::samples      3132480                      
system.noc_network.LD.latency_hist_seqr  |     3132480    100.00%    100.00% |           0      0.00%    100.00% |           0      0.00%    100.00% |           0      0.00%    100.00% |           0      0.00%    100.00% |           0      0.00%    100.00% |           0      0.00%    100.00% |           0      0.00%    100.00% |           0      0.00%    100.00% |           0      0.00%    100.00%
system.noc_network.LD.latency_hist_seqr::total      3132480                      
system.noc_network.LD.miss_latency_hist_seqr::bucket_size            1                      
system.noc_network.LD.miss_latency_hist_seqr::max_bucket            9                      
system.noc_network.LD.miss_latency_hist_seqr::samples        24572                      
system.noc_network.LD.miss_latency_hist_seqr |       24572    100.00%    100.00% |           0      0.00%    100.00% |           0      0.00%    100.00% |           0      0.00%    100.00% |           0      0.00%    100.00% |           0      0.00%    100.00% |           0      0.00%    100.00% |           0      0.00%    100.00% |           0      0.00%    100.00% |           0      0.00%    100.00%
system.noc_network.LD.miss_latency_hist_seqr::total        24572                      
system.noc_network.RMW_Read.Directory.miss_type_mach_latency_hist_seqr::bucket_size            1                      
system.noc_network.RMW_Read.Directory.miss_type_mach_latency_hist_seqr::max_bucket            9                      
system.noc_network.RMW_Read.Directory.miss_type_mach_latency_hist_seqr::samples         1712                      
system.noc_network.RMW_Read.Directory.miss_type_mach_latency_hist_seqr |        1712    100.00%    100.00% |           0      0.00%    100.00% |           0      0.00%    100.00% |           0      0.00%    100.00% |           0      0.00%    100.00% |           0      0.00%    100.00% |           0      0.00%    100.00% |           0      0.00%    100.00% |           0      0.00%    100.00% |           0      0.00%    100.00%
system.noc_network.RMW_Read.Directory.miss_type_mach_latency_hist_seqr::total         1712                      
system.noc_network.RMW_Read.hit_latency_hist_seqr::bucket_size            1                      
system.noc_network.RMW_Read.hit_latency_hist_seqr::max_bucket            9                      
system.noc_network.RMW_Read.hit_latency_hist_seqr::samples        97208                      
system.noc_network.RMW_Read.hit_latency_hist_seqr |       97208    100.00%    100.00% |           0      0.00%    100.00% |           0      0.00%    100.00% |           0      0.00%    100.00% |           0      0.00%    100.00% |           0      0.00%    100.00% |           0      0.00%    100.00% |           0      0.00%    100.00% |           0      0.00%    100.00% |           0      0.00%    100.00%
system.noc_network.RMW_Read.hit_latency_hist_seqr::total        97208                      
system.noc_network.RMW_Read.latency_hist_seqr::bucket_size            1                      
system.noc_network.RMW_Read.latency_hist_seqr::max_bucket            9                      
system.noc_network.RMW_Read.latency_hist_seqr::samples        98920                      
system.noc_network.RMW_Read.latency_hist_seqr |       98920    100.00%    100.00% |           0      0.00%    100.00% |           0      0.00%    100.00% |           0      0.00%    100.00% |           0      0.00%    100.00% |           0      0.00%    100.00% |           0      0.00%    100.00% |           0      0.00%    100.00% |           0      0.00%    100.00% |           0      0.00%    100.00%
system.noc_network.RMW_Read.latency_hist_seqr::total        98920                      
system.noc_network.RMW_Read.miss_latency_hist_seqr::bucket_size            1                      
system.noc_network.RMW_Read.miss_latency_hist_seqr::max_bucket            9                      
system.noc_network.RMW_Read.miss_latency_hist_seqr::samples         1712                      
system.noc_network.RMW_Read.miss_latency_hist_seqr |        1712    100.00%    100.00% |           0      0.00%    100.00% |           0      0.00%    100.00% |           0      0.00%    100.00% |           0      0.00%    100.00% |           0      0.00%    100.00% |           0      0.00%    100.00% |           0      0.00%    100.00% |           0      0.00%    100.00% |           0      0.00%    100.00%
system.noc_network.RMW_Read.miss_latency_hist_seqr::total         1712                      
system.noc_network.ST.Directory.miss_type_mach_latency_hist_seqr::bucket_size            1                      
system.noc_network.ST.Directory.miss_type_mach_latency_hist_seqr::max_bucket            9                      
system.noc_network.ST.Directory.miss_type_mach_latency_hist_seqr::samples         9128                      
system.noc_network.ST.Directory.miss_type_mach_latency_hist_seqr |        9128    100.00%    100.00% |           0      0.00%    100.00% |           0      0.00%    100.00% |           0      0.00%    100.00% |           0      0.00%    100.00% |           0      0.00%    100.00% |           0      0.00%    100.00% |           0      0.00%    100.00% |           0      0.00%    100.00% |           0      0.00%    100.00%
system.noc_network.ST.Directory.miss_type_mach_latency_hist_seqr::total         9128                      
system.noc_network.ST.hit_latency_hist_seqr::bucket_size            1                      
system.noc_network.ST.hit_latency_hist_seqr::max_bucket            9                      
system.noc_network.ST.hit_latency_hist_seqr::samples      1788052                      
system.noc_network.ST.hit_latency_hist_seqr |     1788052    100.00%    100.00% |           0      0.00%    100.00% |           0      0.00%    100.00% |           0      0.00%    100.00% |           0      0.00%    100.00% |           0      0.00%    100.00% |           0      0.00%    100.00% |           0      0.00%    100.00% |           0      0.00%    100.00% |           0      0.00%    100.00%
system.noc_network.ST.hit_latency_hist_seqr::total      1788052                      
system.noc_network.ST.latency_hist_seqr::bucket_size            1                      
system.noc_network.ST.latency_hist_seqr::max_bucket            9                      
system.noc_network.ST.latency_hist_seqr::samples      1797180                      
system.noc_network.ST.latency_hist_seqr  |     1797180    100.00%    100.00% |           0      0.00%    100.00% |           0      0.00%    100.00% |           0      0.00%    100.00% |           0      0.00%    100.00% |           0      0.00%    100.00% |           0      0.00%    100.00% |           0      0.00%    100.00% |           0      0.00%    100.00% |           0      0.00%    100.00%
system.noc_network.ST.latency_hist_seqr::total      1797180                      
system.noc_network.ST.miss_latency_hist_seqr::bucket_size            1                      
system.noc_network.ST.miss_latency_hist_seqr::max_bucket            9                      
system.noc_network.ST.miss_latency_hist_seqr::samples         9128                      
system.noc_network.ST.miss_latency_hist_seqr |        9128    100.00%    100.00% |           0      0.00%    100.00% |           0      0.00%    100.00% |           0      0.00%    100.00% |           0      0.00%    100.00% |           0      0.00%    100.00% |           0      0.00%    100.00% |           0      0.00%    100.00% |           0      0.00%    100.00% |           0      0.00%    100.00%
system.noc_network.ST.miss_latency_hist_seqr::total         9128                      
system.noc_network.delayHist::bucket_size            4                       # delay histogram for all message
system.noc_network.delayHist::max_bucket           39                       # delay histogram for all message
system.noc_network.delayHist::samples          277984                       # delay histogram for all message
system.noc_network.delayHist::mean          10.566763                       # delay histogram for all message
system.noc_network.delayHist::gmean         10.122703                       # delay histogram for all message
system.noc_network.delayHist::stdev          3.010206                       # delay histogram for all message
system.noc_network.delayHist             |           0      0.00%      0.00% |       35899     12.91%     12.91% |      136388     49.06%     61.98% |      100678     36.22%     98.19% |        4527      1.63%     99.82% |         474      0.17%     99.99% |          18      0.01%    100.00% |           0      0.00%    100.00% |           0      0.00%    100.00% |           0      0.00%    100.00% # delay histogram for all message
system.noc_network.delayHist::total            277984                       # delay histogram for all message
system.noc_network.delayVCHist.vnet_1::bucket_size            4                       # delay histogram for vnet_1
system.noc_network.delayVCHist.vnet_1::max_bucket           39                       # delay histogram for vnet_1
system.noc_network.delayVCHist.vnet_1::samples       139504                       # delay histogram for vnet_1
system.noc_network.delayVCHist.vnet_1::mean    13.149480                       # delay histogram for vnet_1
system.noc_network.delayVCHist.vnet_1::gmean    13.050978                       # delay histogram for vnet_1
system.noc_network.delayVCHist.vnet_1::stdev     1.637140                       # delay histogram for vnet_1
system.noc_network.delayVCHist.vnet_1    |           0      0.00%      0.00% |           0      0.00%      0.00% |       33809     24.24%     24.24% |      100676     72.17%     96.40% |        4527      3.25%     99.65% |         474      0.34%     99.99% |          18      0.01%    100.00% |           0      0.00%    100.00% |           0      0.00%    100.00% |           0      0.00%    100.00% # delay histogram for vnet_1
system.noc_network.delayVCHist.vnet_1::total       139504                       # delay histogram for vnet_1
system.noc_network.delayVCHist.vnet_2::bucket_size            2                       # delay histogram for vnet_2
system.noc_network.delayVCHist.vnet_2::max_bucket           19                       # delay histogram for vnet_2
system.noc_network.delayVCHist.vnet_2::samples       138480                       # delay histogram for vnet_2
system.noc_network.delayVCHist.vnet_2::mean     7.964948                       # delay histogram for vnet_2
system.noc_network.delayVCHist.vnet_2::gmean     7.836713                       # delay histogram for vnet_2
system.noc_network.delayVCHist.vnet_2::stdev     1.414361                       # delay histogram for vnet_2
system.noc_network.delayVCHist.vnet_2    |           0      0.00%      0.00% |           0      0.00%      0.00% |           0      0.00%      0.00% |       35899     25.92%     25.92% |       69236     50.00%     75.92% |       33343     24.08%    100.00% |           2      0.00%    100.00% |           0      0.00%    100.00% |           0      0.00%    100.00% |           0      0.00%    100.00% # delay histogram for vnet_2
system.noc_network.delayVCHist.vnet_2::total       138480                       # delay histogram for vnet_2
system.noc_network.hit_latency_hist_seqr::bucket_size            1                      
system.noc_network.hit_latency_hist_seqr::max_bucket            9                      
system.noc_network.hit_latency_hist_seqr::samples     21282792                      
system.noc_network.hit_latency_hist_seqr |    21282792    100.00%    100.00% |           0      0.00%    100.00% |           0      0.00%    100.00% |           0      0.00%    100.00% |           0      0.00%    100.00% |           0      0.00%    100.00% |           0      0.00%    100.00% |           0      0.00%    100.00% |           0      0.00%    100.00% |           0      0.00%    100.00%
system.noc_network.hit_latency_hist_seqr::total     21282792                      
system.noc_network.latency_hist_seqr::bucket_size           16                      
system.noc_network.latency_hist_seqr::max_bucket          159                      
system.noc_network.latency_hist_seqr::samples     21422296                      
system.noc_network.latency_hist_seqr::mean     0.000014                      
system.noc_network.latency_hist_seqr::stdev     0.032595                      
system.noc_network.latency_hist_seqr     |    21422292    100.00%    100.00% |           0      0.00%    100.00% |           0      0.00%    100.00% |           0      0.00%    100.00% |           3      0.00%    100.00% |           1      0.00%    100.00% |           0      0.00%    100.00% |           0      0.00%    100.00% |           0      0.00%    100.00% |           0      0.00%    100.00%
system.noc_network.latency_hist_seqr::total     21422296                      
system.noc_network.miss_latency_hist_seqr::bucket_size           16                      
system.noc_network.miss_latency_hist_seqr::max_bucket          159                      
system.noc_network.miss_latency_hist_seqr::samples       139504                      
system.noc_network.miss_latency_hist_seqr::mean     0.002150                      
system.noc_network.miss_latency_hist_seqr::stdev     0.403913                      
system.noc_network.miss_latency_hist_seqr |      139500    100.00%    100.00% |           0      0.00%    100.00% |           0      0.00%    100.00% |           0      0.00%    100.00% |           3      0.00%    100.00% |           1      0.00%    100.00% |           0      0.00%    100.00% |           0      0.00%    100.00% |           0      0.00%    100.00% |           0      0.00%    100.00%
system.noc_network.miss_latency_hist_seqr::total       139504                      
system.noc_network.network.average_flit_latency 15378.296353                      
system.noc_network.network.average_flit_network_latency 13795.631523                      
system.noc_network.network.average_flit_queueing_latency  1582.664830                      
system.noc_network.network.average_flit_vnet_latency |         nan                       |         nan                       |18651.705004                       | 6964.948007                       | 9360.097202                      
system.noc_network.network.average_flit_vqueue_latency |         nan                       |         nan                       | 2166.461515                       |        1000                       | 1002.071625                      
system.noc_network.network.average_hops      1.981560                      
system.noc_network.network.average_packet_latency 20012.094221                      
system.noc_network.network.average_packet_network_latency 18262.495323                      
system.noc_network.network.average_packet_queueing_latency  1749.598898                      
system.noc_network.network.average_packet_vnet_latency |         nan                       |         nan                       |26959.267440                       | 6964.948007                       |12147.407960                      
system.noc_network.network.average_packet_vqueue_latency |         nan                       |         nan                       | 2498.158167                       |        1000                       | 1002.071625                      
system.noc_network.network.avg_link_utilization     0.490533                      
system.noc_network.network.avg_vc_load   |           0      0.00%      0.00% |           0      0.00%      0.00% |           0      0.00%      0.00% |           0      0.00%      0.00% |           0      0.00%      0.00% |           0      0.00%      0.00% |           0      0.00%      0.00% |           0      0.00%      0.00% |    0.166067     33.85%     33.85% |    0.042698      8.70%     42.56% |    0.030067      6.13%     48.69% |    0.005830      1.19%     49.88% |    0.032841      6.69%     56.57% |    0.002770      0.56%     57.14% |    0.002558      0.52%     57.66% |    0.002557      0.52%     58.18% |    0.163962     33.43%     91.60% |    0.015419      3.14%     94.75% |    0.012881      2.63%     97.37% |    0.012881      2.63%    100.00%
system.noc_network.network.avg_vc_load::total     0.490533                      
system.noc_network.network.ext_in_link_utilization      1667904                      
system.noc_network.network.ext_out_link_utilization      1667904                      
system.noc_network.network.flit_network_latency |           0                       |           0                       | 15516428000                       |   964506000                       |  6528855000                      
system.noc_network.network.flit_queueing_latency |           0                       |           0                       |  1802288000                       |   138480000                       |   698965000                      
system.noc_network.network.flits_injected |           0      0.00%      0.00% |           0      0.00%      0.00% |      831904     49.88%     49.88% |      138480      8.30%     58.18% |      697520     41.82%    100.00%
system.noc_network.network.flits_injected::total      1667904                      
system.noc_network.network.flits_received |           0      0.00%      0.00% |           0      0.00%      0.00% |      831904     49.88%     49.88% |      138480      8.30%     58.18% |      697520     41.82%    100.00%
system.noc_network.network.flits_received::total      1667904                      
system.noc_network.network.int_link_utilization      3305052                      
system.noc_network.network.packet_network_latency |           0                       |           0                       |  7494245000                       |   964506000                       |  1694612000                      
system.noc_network.network.packet_queueing_latency |           0                       |           0                       |   694448000                       |   138480000                       |   139793000                      
system.noc_network.network.packets_injected |           0      0.00%      0.00% |           0      0.00%      0.00% |      277984     50.00%     50.00% |      138480     24.91%     74.91% |      139504     25.09%    100.00%
system.noc_network.network.packets_injected::total       555968                      
system.noc_network.network.packets_received |           0      0.00%      0.00% |           0      0.00%      0.00% |      277984     50.00%     50.00% |      138480     24.91%     74.91% |      139504     25.09%    100.00%
system.noc_network.network.packets_received::total       555968                      
system.noc_network.network.routers0.buffer_reads       819578                      
system.noc_network.network.routers0.buffer_writes       819578                      
system.noc_network.network.routers0.crossbar_activity       819578                      
system.noc_network.network.routers0.sw_input_arbiter_activity       820002                      
system.noc_network.network.routers0.sw_output_arbiter_activity       819578                      
system.noc_network.network.routers1.buffer_reads      1614071                      
system.noc_network.network.routers1.buffer_writes      1614071                      
system.noc_network.network.routers1.crossbar_activity      1614071                      
system.noc_network.network.routers1.sw_input_arbiter_activity      1625705                      
system.noc_network.network.routers1.sw_output_arbiter_activity      1614071                      
system.noc_network.network.routers2.buffer_reads       633675                      
system.noc_network.network.routers2.buffer_writes       633675                      
system.noc_network.network.routers2.crossbar_activity       633675                      
system.noc_network.network.routers2.sw_input_arbiter_activity       635392                      
system.noc_network.network.routers2.sw_output_arbiter_activity       633675                      
system.noc_network.network.routers3.buffer_reads       863704                      
system.noc_network.network.routers3.buffer_writes       863704                      
system.noc_network.network.routers3.crossbar_activity       863704                      
system.noc_network.network.routers3.sw_input_arbiter_activity       872355                      
system.noc_network.network.routers3.sw_output_arbiter_activity       863704                      
system.noc_network.network.routers4.buffer_reads       416976                      
system.noc_network.network.routers4.buffer_writes       416976                      
system.noc_network.network.routers4.crossbar_activity       416976                      
system.noc_network.network.routers4.sw_input_arbiter_activity       416976                      
system.noc_network.network.routers4.sw_output_arbiter_activity       416976                      
system.noc_network.network.routers5.buffer_reads       624952                      
system.noc_network.network.routers5.buffer_writes       624952                      
system.noc_network.network.routers5.crossbar_activity       624952                      
system.noc_network.network.routers5.sw_input_arbiter_activity       628106                      
system.noc_network.network.routers5.sw_output_arbiter_activity       624952                      
system.noc_network.outstanding_req_hist_seqr::bucket_size            1                      
system.noc_network.outstanding_req_hist_seqr::max_bucket            9                      
system.noc_network.outstanding_req_hist_seqr::samples     21422296                      
system.noc_network.outstanding_req_hist_seqr::mean     1.000148                      
system.noc_network.outstanding_req_hist_seqr::gmean     1.000102                      
system.noc_network.outstanding_req_hist_seqr::stdev     0.012152                      
system.noc_network.outstanding_req_hist_seqr |           0      0.00%      0.00% |    21419132     99.99%     99.99% |        3164      0.01%    100.00% |           0      0.00%    100.00% |           0      0.00%    100.00% |           0      0.00%    100.00% |           0      0.00%    100.00% |           0      0.00%    100.00% |           0      0.00%    100.00% |           0      0.00%    100.00%
system.noc_network.outstanding_req_hist_seqr::total     21422296                      
system.noc_network.socket_controllers0.cacheMemory.demand_accesses      5355574                       # Number of cache demand accesses
system.noc_network.socket_controllers0.cacheMemory.demand_hits      5320698                       # Number of cache demand hits
system.noc_network.socket_controllers0.cacheMemory.demand_misses        34876                       # Number of cache demand misses
system.noc_network.socket_controllers0.forwardToCache.avg_buf_msgs     0.002557                       # Average number of messages in buffer
system.noc_network.socket_controllers0.forwardToCache.avg_stall_time  8075.046118                       # Average number of cycles messages are stalled in this MB
system.noc_network.socket_controllers0.mandatoryQueue.avg_buf_msgs     0.395594                       # Average number of messages in buffer
system.noc_network.socket_controllers0.mandatoryQueue.avg_stall_time   999.999926                       # Average number of cycles messages are stalled in this MB
system.noc_network.socket_controllers0.requestFromCache.avg_buf_msgs     0.012824                       # Average number of messages in buffer
system.noc_network.socket_controllers0.requestFromCache.avg_stall_time  2995.514424                       # Average number of cycles messages are stalled in this MB
system.noc_network.socket_controllers0.responseToCache.avg_buf_msgs     0.002576                       # Average number of messages in buffer
system.noc_network.socket_controllers0.responseToCache.avg_stall_time 13401.323912                       # Average number of cycles messages are stalled in this MB
system.noc_network.socket_controllers1.forwardFromDir.avg_buf_msgs     0.009851                       # Average number of messages in buffer
system.noc_network.socket_controllers1.forwardFromDir.avg_stall_time   998.908042                       # Average number of cycles messages are stalled in this MB
system.noc_network.socket_controllers1.requestToDir.avg_buf_msgs     0.019776                       # Average number of messages in buffer
[...]
system.noc_network.socket_controllers3.mem_ctrl.wrPerTurnAround::19            3      3.57%     98.81% # Writes before turning the bus around for reads
system.noc_network.socket_controllers3.mem_ctrl.wrPerTurnAround::20            1      1.19%    100.00% # Writes before turning the bus around for reads
system.noc_network.socket_controllers3.mem_ctrl.wrPerTurnAround::total           84                       # Writes before turning the bus around for reads
system.noc_network.socket_controllers3.mem_ctrl.bytesReadWrQ       243200                       # Total number of bytes read from write queue
system.noc_network.socket_controllers3.mem_ctrl.bytesReadSys       328704                       # Total read bytes from the system interface side
system.noc_network.socket_controllers3.mem_ctrl.bytesWrittenSys       327424                       # Total written bytes from the system interface side
system.noc_network.socket_controllers3.mem_ctrl.avgRdBWSys        24.28                       # Average system read bandwidth in MiByte/s
system.noc_network.socket_controllers3.mem_ctrl.avgWrBWSys        24.19                       # Average system write bandwidth in MiByte/s
system.noc_network.socket_controllers3.mem_ctrl.totGap  13522528000                       # Total gap between requests
system.noc_network.socket_controllers3.mem_ctrl.avgGap   1319013.66                       # Average gap between requests
system.noc_network.socket_controllers3.mem_ctrl.requestorReadBytes::.noc_network.socket_controllers3        85504                       # Per-requestor bytes read from memory
system.noc_network.socket_controllers3.mem_ctrl.requestorWriteBytes::.noc_network.socket_controllers3        96320                       # Per-requestor bytes write to memory
system.noc_network.socket_controllers3.mem_ctrl.requestorReadRate::.noc_network.socket_controllers3 6315822.752178265713                       # Per-requestor bytes read from memory rate (Bytes/sec)
system.noc_network.socket_controllers3.mem_ctrl.requestorWriteRate::.noc_network.socket_controllers3 7114755.420679857954                       # Per-requestor bytes write to memory rate (Bytes/sec)
system.noc_network.socket_controllers3.mem_ctrl.requestorReadAccesses::.noc_network.socket_controllers3         5136                       # Per-requestor read serviced memory accesses
system.noc_network.socket_controllers3.mem_ctrl.requestorWriteAccesses::.noc_network.socket_controllers3         5116                       # Per-requestor write serviced memory accesses
system.noc_network.socket_controllers3.mem_ctrl.requestorReadTotalLat::.noc_network.socket_controllers3    516666310                       # Per-requestor read total memory access latency
system.noc_network.socket_controllers3.mem_ctrl.requestorWriteTotalLat::.noc_network.socket_controllers3 751792515576                       # Per-requestor write total memory access latency
system.noc_network.socket_controllers3.mem_ctrl.requestorReadAvgLat::.noc_network.socket_controllers3    100597.02                       # Per-requestor read average memory access latency
system.noc_network.socket_controllers3.mem_ctrl.requestorWriteAvgLat::.noc_network.socket_controllers3 146949279.82                       # Per-requestor write average memory access latency
system.noc_network.socket_controllers3.mem_ctrl.nvm.bytes_read::.noc_network.socket_controllers3       328704                       # Number of bytes read from this memory
system.noc_network.socket_controllers3.mem_ctrl.nvm.bytes_read::total       328704                       # Number of bytes read from this memory
system.noc_network.socket_controllers3.mem_ctrl.nvm.bytes_written::.noc_network.socket_controllers3       327424                       # Number of bytes written to this memory
system.noc_network.socket_controllers3.mem_ctrl.nvm.bytes_written::total       327424                       # Number of bytes written to this memory
system.noc_network.socket_controllers3.mem_ctrl.nvm.num_reads::.noc_network.socket_controllers3         5136                       # Number of read requests responded to by this memory
system.noc_network.socket_controllers3.mem_ctrl.nvm.num_reads::total         5136                       # Number of read requests responded to by this memory
system.noc_network.socket_controllers3.mem_ctrl.nvm.num_writes::.noc_network.socket_controllers3         5116                       # Number of write requests responded to by this memory
system.noc_network.socket_controllers3.mem_ctrl.nvm.num_writes::total         5116                       # Number of write requests responded to by this memory
system.noc_network.socket_controllers3.mem_ctrl.nvm.bw_read::.noc_network.socket_controllers3     24279989                       # Total read bandwidth from this memory (bytes/s)
system.noc_network.socket_controllers3.mem_ctrl.nvm.bw_read::total     24279989                       # Total read bandwidth from this memory (bytes/s)
system.noc_network.socket_controllers3.mem_ctrl.nvm.bw_write::.noc_network.socket_controllers3     24185441                       # Write bandwidth from this memory (bytes/s)
system.noc_network.socket_controllers3.mem_ctrl.nvm.bw_write::total     24185441                       # Write bandwidth from this memory (bytes/s)
system.noc_network.socket_controllers3.mem_ctrl.nvm.bw_total::.noc_network.socket_controllers3     48465430                       # Total bandwidth to/from this memory (bytes/s)
system.noc_network.socket_controllers3.mem_ctrl.nvm.bw_total::total     48465430                       # Total bandwidth to/from this memory (bytes/s)
system.noc_network.socket_controllers3.mem_ctrl.nvm.readBursts         1336                       # Number of NVM read bursts
system.noc_network.socket_controllers3.mem_ctrl.nvm.writeBursts         1505                       # Number of NVM write bursts
system.noc_network.socket_controllers3.mem_ctrl.nvm.perBankRdBursts::0          266                       # Per bank write bursts
system.noc_network.socket_controllers3.mem_ctrl.nvm.perBankRdBursts::1          247                       # Per bank write bursts
system.noc_network.socket_controllers3.mem_ctrl.nvm.perBankRdBursts::2          140                       # Per bank write bursts
system.noc_network.socket_controllers3.mem_ctrl.nvm.perBankRdBursts::3          130                       # Per bank write bursts
system.noc_network.socket_controllers3.mem_ctrl.nvm.perBankRdBursts::4           48                       # Per bank write bursts
system.noc_network.socket_controllers3.mem_ctrl.nvm.perBankRdBursts::5           48                       # Per bank write bursts
system.noc_network.socket_controllers3.mem_ctrl.nvm.perBankRdBursts::6           40                       # Per bank write bursts
system.noc_network.socket_controllers3.mem_ctrl.nvm.perBankRdBursts::7           16                       # Per bank write bursts
system.noc_network.socket_controllers3.mem_ctrl.nvm.perBankRdBursts::8           54                       # Per bank write bursts
system.noc_network.socket_controllers3.mem_ctrl.nvm.perBankRdBursts::9           16                       # Per bank write bursts
system.noc_network.socket_controllers3.mem_ctrl.nvm.perBankRdBursts::10           16                       # Per bank write bursts
system.noc_network.socket_controllers3.mem_ctrl.nvm.perBankRdBursts::11           64                       # Per bank write bursts
system.noc_network.socket_controllers3.mem_ctrl.nvm.perBankRdBursts::12           64                       # Per bank write bursts
system.noc_network.socket_controllers3.mem_ctrl.nvm.perBankRdBursts::13           58                       # Per bank write bursts
system.noc_network.socket_controllers3.mem_ctrl.nvm.perBankRdBursts::14           58                       # Per bank write bursts
system.noc_network.socket_controllers3.mem_ctrl.nvm.perBankRdBursts::15           71                       # Per bank write bursts
system.noc_network.socket_controllers3.mem_ctrl.nvm.perBankWrBursts::0          308                       # Per bank write bursts
system.noc_network.socket_controllers3.mem_ctrl.nvm.perBankWrBursts::1          269                       # Per bank write bursts
system.noc_network.socket_controllers3.mem_ctrl.nvm.perBankWrBursts::2          142                       # Per bank write bursts
system.noc_network.socket_controllers3.mem_ctrl.nvm.perBankWrBursts::3          136                       # Per bank write bursts
system.noc_network.socket_controllers3.mem_ctrl.nvm.perBankWrBursts::4           47                       # Per bank write bursts
system.noc_network.socket_controllers3.mem_ctrl.nvm.perBankWrBursts::5           44                       # Per bank write bursts
system.noc_network.socket_controllers3.mem_ctrl.nvm.perBankWrBursts::6           34                       # Per bank write bursts
system.noc_network.socket_controllers3.mem_ctrl.nvm.perBankWrBursts::7           16                       # Per bank write bursts
system.noc_network.socket_controllers3.mem_ctrl.nvm.perBankWrBursts::8          131                       # Per bank write bursts
system.noc_network.socket_controllers3.mem_ctrl.nvm.perBankWrBursts::9           16                       # Per bank write bursts
system.noc_network.socket_controllers3.mem_ctrl.nvm.perBankWrBursts::10           16                       # Per bank write bursts
system.noc_network.socket_controllers3.mem_ctrl.nvm.perBankWrBursts::11           67                       # Per bank write bursts
system.noc_network.socket_controllers3.mem_ctrl.nvm.perBankWrBursts::12           64                       # Per bank write bursts
system.noc_network.socket_controllers3.mem_ctrl.nvm.perBankWrBursts::13           68                       # Per bank write bursts
system.noc_network.socket_controllers3.mem_ctrl.nvm.perBankWrBursts::14           60                       # Per bank write bursts
system.noc_network.socket_controllers3.mem_ctrl.nvm.perBankWrBursts::15           87                       # Per bank write bursts
system.noc_network.socket_controllers3.mem_ctrl.nvm.totQLat    493296998                       # Total ticks spent queuing
system.noc_network.socket_controllers3.mem_ctrl.nvm.totBusLat      4451552                       # Total ticks spent in databus transfers
system.noc_network.socket_controllers3.mem_ctrl.nvm.totMemAccLat    516666310                       # Total ticks spent from burst creation until serviced by the NVM
system.noc_network.socket_controllers3.mem_ctrl.nvm.avgQLat    369234.28                       # Average queueing delay per NVM burst
system.noc_network.socket_controllers3.mem_ctrl.nvm.avgBusLat      3332.00                       # Average bus latency per NVM burst
system.noc_network.socket_controllers3.mem_ctrl.nvm.avgMemAccLat    386726.28                       # Average memory access latency per NVM burst
system.noc_network.socket_controllers3.mem_ctrl.nvm.bytesRead        85504                       # Total number of bytes read from DRAM
system.noc_network.socket_controllers3.mem_ctrl.nvm.bytesWritten        96320                       # Total number of bytes written to DRAM
system.noc_network.socket_controllers3.mem_ctrl.nvm.avgRdBW         6.32                       # Average DRAM read bandwidth in MiBytes/s
system.noc_network.socket_controllers3.mem_ctrl.nvm.avgWrBW         7.11                       # Average DRAM write bandwidth in MiBytes/s
system.noc_network.socket_controllers3.mem_ctrl.nvm.peakBW     19207.00                       # Theoretical peak bandwidth in MiByte/s
system.noc_network.socket_controllers3.mem_ctrl.nvm.busUtil         0.07                       # NVM Data bus utilization in percentage
system.noc_network.socket_controllers3.mem_ctrl.nvm.busUtilRead         0.03                       # NVM Data bus read utilization in percentage
system.noc_network.socket_controllers3.mem_ctrl.nvm.busUtilWrite         0.04                       # NVM Data bus write utilization in percentage
system.noc_network.socket_controllers3.mem_ctrl.nvm.pendingReads::samples         1336                       # Reads issued to NVM for which data has not been transferred
system.noc_network.socket_controllers3.mem_ctrl.nvm.pendingReads::mean     0.247754                       # Reads issued to NVM for which data has not been transferred
system.noc_network.socket_controllers3.mem_ctrl.nvm.pendingReads::stdev     0.550786                       # Reads issued to NVM for which data has not been transferred
system.noc_network.socket_controllers3.mem_ctrl.nvm.pendingReads::0         1074     80.39%     80.39% # Reads issued to NVM for which data has not been transferred
system.noc_network.socket_controllers3.mem_ctrl.nvm.pendingReads::1          202     15.12%     95.51% # Reads issued to NVM for which data has not been transferred
system.noc_network.socket_controllers3.mem_ctrl.nvm.pendingReads::2           51      3.82%     99.33% # Reads issued to NVM for which data has not been transferred
system.noc_network.socket_controllers3.mem_ctrl.nvm.pendingReads::3            9      0.67%    100.00% # Reads issued to NVM for which data has not been transferred
system.noc_network.socket_controllers3.mem_ctrl.nvm.pendingReads::total         1336                       # Reads issued to NVM for which data has not been transferred
system.noc_network.socket_controllers3.mem_ctrl.nvm.pendingWrites::samples         1505                       # Number of outstanding writes to NVM
system.noc_network.socket_controllers3.mem_ctrl.nvm.pendingWrites::mean     9.492359                       # Number of outstanding writes to NVM
system.noc_network.socket_controllers3.mem_ctrl.nvm.pendingWrites::gmean     7.552345                       # Number of outstanding writes to NVM
system.noc_network.socket_controllers3.mem_ctrl.nvm.pendingWrites::stdev     5.187326                       # Number of outstanding writes to NVM
system.noc_network.socket_controllers3.mem_ctrl.nvm.pendingWrites::1           83      5.51%      5.51% # Number of outstanding writes to NVM
system.noc_network.socket_controllers3.mem_ctrl.nvm.pendingWrites::2           83      5.51%     11.03% # Number of outstanding writes to NVM
system.noc_network.socket_controllers3.mem_ctrl.nvm.pendingWrites::3           84      5.58%     16.61% # Number of outstanding writes to NVM
system.noc_network.socket_controllers3.mem_ctrl.nvm.pendingWrites::4           84      5.58%     22.19% # Number of outstanding writes to NVM
system.noc_network.socket_controllers3.mem_ctrl.nvm.pendingWrites::5           84      5.58%     27.77% # Number of outstanding writes to NVM
system.noc_network.socket_controllers3.mem_ctrl.nvm.pendingWrites::6           84      5.58%     33.36% # Number of outstanding writes to NVM
system.noc_network.socket_controllers3.mem_ctrl.nvm.pendingWrites::7           84      5.58%     38.94% # Number of outstanding writes to NVM
system.noc_network.socket_controllers3.mem_ctrl.nvm.pendingWrites::8           84      5.58%     44.52% # Number of outstanding writes to NVM
system.noc_network.socket_controllers3.mem_ctrl.nvm.pendingWrites::9           84      5.58%     50.10% # Number of outstanding writes to NVM
system.noc_network.socket_controllers3.mem_ctrl.nvm.pendingWrites::10           84      5.58%     55.68% # Number of outstanding writes to NVM
system.noc_network.socket_controllers3.mem_ctrl.nvm.pendingWrites::11           84      5.58%     61.26% # Number of outstanding writes to NVM
system.noc_network.socket_controllers3.mem_ctrl.nvm.pendingWrites::12           84      5.58%     66.84% # Number of outstanding writes to NVM
system.noc_network.socket_controllers3.mem_ctrl.nvm.pendingWrites::13           84      5.58%     72.43% # Number of outstanding writes to NVM
system.noc_network.socket_controllers3.mem_ctrl.nvm.pendingWrites::14           84      5.58%     78.01% # Number of outstanding writes to NVM
system.noc_network.socket_controllers3.mem_ctrl.nvm.pendingWrites::15           84      5.58%     83.59% # Number of outstanding writes to NVM
system.noc_network.socket_controllers3.mem_ctrl.nvm.pendingWrites::16           84      5.58%     89.17% # Number of outstanding writes to NVM
system.noc_network.socket_controllers3.mem_ctrl.nvm.pendingWrites::17           78      5.18%     94.35% # Number of outstanding writes to NVM
system.noc_network.socket_controllers3.mem_ctrl.nvm.pendingWrites::18           78      5.18%     99.53% # Number of outstanding writes to NVM
system.noc_network.socket_controllers3.mem_ctrl.nvm.pendingWrites::19            5      0.33%     99.87% # Number of outstanding writes to NVM
system.noc_network.socket_controllers3.mem_ctrl.nvm.pendingWrites::20            2      0.13%    100.00% # Number of outstanding writes to NVM
system.noc_network.socket_controllers3.mem_ctrl.nvm.pendingWrites::total         1505                       # Number of outstanding writes to NVM
system.noc_network.socket_controllers3.mem_ctrl.nvm.bytesPerBank::samples         2530                       # Bytes read within a bank before loading new bank
system.noc_network.socket_controllers3.mem_ctrl.nvm.bytesPerBank::mean    71.690119                       # Bytes read within a bank before loading new bank
system.noc_network.socket_controllers3.mem_ctrl.nvm.bytesPerBank::gmean    68.804473                       # Bytes read within a bank before loading new bank
system.noc_network.socket_controllers3.mem_ctrl.nvm.bytesPerBank::stdev    28.270715                       # Bytes read within a bank before loading new bank
system.noc_network.socket_controllers3.mem_ctrl.nvm.bytesPerBank::64-65         2310     91.30%     91.30% # Bytes read within a bank before loading new bank
system.noc_network.socket_controllers3.mem_ctrl.nvm.bytesPerBank::128-129          165      6.52%     97.83% # Bytes read within a bank before loading new bank
system.noc_network.socket_controllers3.mem_ctrl.nvm.bytesPerBank::192-193           26      1.03%     98.85% # Bytes read within a bank before loading new bank
system.noc_network.socket_controllers3.mem_ctrl.nvm.bytesPerBank::256-257           29      1.15%    100.00% # Bytes read within a bank before loading new bank
system.noc_network.socket_controllers3.mem_ctrl.nvm.bytesPerBank::total         2530                       # Bytes read within a bank before loading new bank
system.noc_network.socket_controllers3.mem_ctrl.nvm.power_state.pwrStateResidencyTicks::UNDEFINED  13538062000                       # Cumulative time (in ticks) in various power states
system.noc_network.socket_controllers3.mem_ctrl.power_state.pwrStateResidencyTicks::UNDEFINED  13538062000                       # Cumulative time (in ticks) in various power states
system.noc_network.socket_controllers3.power_state.pwrStateResidencyTicks::UNDEFINED  13538062000                       # Cumulative time (in ticks) in various power states
system.noc_network.socket_controllers4.power_state.pwrStateResidencyTicks::UNDEFINED  13538062000                       # Cumulative time (in ticks) in various power states
system.noc_network.socket_controllers4.sequencer.power_state.pwrStateResidencyTicks::UNDEFINED  13538062000                       # Cumulative time (in ticks) in various power states
system.noc_network.socket_controllers5.power_state.pwrStateResidencyTicks::UNDEFINED  13538062000                       # Cumulative time (in ticks) in various power states
system.noc_network.socket_controllers5.sequencer.power_state.pwrStateResidencyTicks::UNDEFINED  13538062000                       # Cumulative time (in ticks) in various power states
system.noc_network.sys_port_proxy.power_state.pwrStateResidencyTicks::UNDEFINED  13538062000                       # Cumulative time (in ticks) in various power states
system.voltage_domain.voltage                       1                       # Voltage in Volts

---------- End Simulation Statistics   ----------
