
---------- Begin Simulation Statistics ----------
final_tick                               591358418000                       # Number of ticks from beginning of simulation (restored from checkpoints and never reset)
host_inst_rate                                  27949                       # Simulator instruction rate (inst/s)
host_mem_usage                                1475708                       # Number of bytes of host memory used
host_op_rate                                    48047                       # Simulator op (including micro ops) rate (op/s)
host_seconds                                  1935.98                       # Real time elapsed on the host
host_tick_rate                              305457506                       # Simulator tick rate (ticks/s)
sim_freq                                 1000000000000                       # Frequency of simulated ticks
sim_insts                                    54109038                       # Number of instructions simulated
sim_ops                                      93017524                       # Number of ops (including micro ops) simulated
sim_seconds                                  0.591358                       # Number of seconds simulated
sim_ticks                                591358418000                       # Number of ticks simulated
system.cpu0.Branches                             5316                       # Number of branches fetched
system.cpu0.committedInsts                      25775                       # Number of instructions committed
system.cpu0.committedOps                        49656                       # Number of ops (including micro ops) committed
system.cpu0.idle_fraction                    0.999606                       # Percentage of idle cycles
system.cpu0.not_idle_fraction                0.000394                       # Percentage of non-idle cycles
system.cpu0.numCycles                       591358418                       # number of cpu cycles simulated
system.cpu0.numWorkItemsCompleted                   0                       # number of work items this cpu completed
system.cpu0.numWorkItemsStarted                     0                       # number of work items this cpu started
system.cpu0.num_busy_cycles              233054.000000                       # Number of busy cycles
system.cpu0.num_cc_register_reads               25618                       # number of times the CC registers were read
system.cpu0.num_cc_register_writes              14738                       # number of times the CC registers were written
system.cpu0.num_conditional_control_insts         3773                       # number of instructions that are conditional controls
system.cpu0.num_fp_alu_accesses                  2573                       # Number of float alu accesses
system.cpu0.num_fp_insts                         2573                       # number of float instructions
system.cpu0.num_fp_register_reads                2706                       # number of times the floating registers were read
system.cpu0.num_fp_register_writes               1201                       # number of times the floating registers were written
system.cpu0.num_func_calls                       1138                       # number of times a function call or return occured
system.cpu0.num_idle_cycles              591125364.000000                       # Number of idle cycles
system.cpu0.num_int_alu_accesses                47732                       # Number of integer alu accesses
system.cpu0.num_int_insts                       47732                       # number of integer instructions
system.cpu0.num_int_register_reads              94401                       # number of times the integer registers were read
system.cpu0.num_int_register_writes             36800                       # number of times the integer registers were written
system.cpu0.num_load_insts                       5800                       # Number of load instructions
system.cpu0.num_mem_refs                        11179                       # number of memory refs
system.cpu0.num_store_insts                      5379                       # Number of store instructions
system.cpu0.num_vec_alu_accesses                    0                       # Number of vector alu accesses
system.cpu0.num_vec_insts                           0                       # number of vector instructions
system.cpu0.num_vec_register_reads                  0                       # number of times the vector registers were read
system.cpu0.num_vec_register_writes                 0                       # number of times the vector registers were written
system.cpu0.op_class::No_OpClass                  784      1.58%      1.58% # Class of executed instruction
system.cpu0.op_class::IntAlu                    36900     74.23%     75.81% # Class of executed instruction
system.cpu0.op_class::IntMult                      15      0.03%     75.84% # Class of executed instruction
system.cpu0.op_class::IntDiv                       42      0.08%     75.92% # Class of executed instruction
system.cpu0.op_class::FloatAdd                    194      0.39%     76.31% # Class of executed instruction
system.cpu0.op_class::FloatCmp                      0      0.00%     76.31% # Class of executed instruction
system.cpu0.op_class::FloatCvt                      0      0.00%     76.31% # Class of executed instruction
system.cpu0.op_class::FloatMult                     0      0.00%     76.31% # Class of executed instruction
system.cpu0.op_class::FloatMultAcc                  0      0.00%     76.31% # Class of executed instruction
system.cpu0.op_class::FloatDiv                      0      0.00%     76.31% # Class of executed instruction
system.cpu0.op_class::FloatMisc                     0      0.00%     76.31% # Class of executed instruction
system.cpu0.op_class::FloatSqrt                     0      0.00%     76.31% # Class of executed instruction
system.cpu0.op_class::SimdAdd                       0      0.00%     76.31% # Class of executed instruction
system.cpu0.op_class::SimdAddAcc                    0      0.00%     76.31% # Class of executed instruction
system.cpu0.op_class::SimdAlu                     134      0.27%     76.58% # Class of executed instruction
system.cpu0.op_class::SimdCmp                       0      0.00%     76.58% # Class of executed instruction
system.cpu0.op_class::SimdCvt                      62      0.12%     76.71% # Class of executed instruction
system.cpu0.op_class::SimdMisc                    392      0.79%     77.50% # Class of executed instruction
system.cpu0.op_class::SimdMult                      0      0.00%     77.50% # Class of executed instruction
system.cpu0.op_class::SimdMultAcc                   0      0.00%     77.50% # Class of executed instruction
system.cpu0.op_class::SimdShift                     0      0.00%     77.50% # Class of executed instruction
system.cpu0.op_class::SimdShiftAcc                  0      0.00%     77.50% # Class of executed instruction
system.cpu0.op_class::SimdDiv                       0      0.00%     77.50% # Class of executed instruction
system.cpu0.op_class::SimdSqrt                      0      0.00%     77.50% # Class of executed instruction
system.cpu0.op_class::SimdFloatAdd                  0      0.00%     77.50% # Class of executed instruction
system.cpu0.op_class::SimdFloatAlu                  0      0.00%     77.50% # Class of executed instruction
system.cpu0.op_class::SimdFloatCmp                  0      0.00%     77.50% # Class of executed instruction
system.cpu0.op_class::SimdFloatCvt                  5      0.01%     77.51% # Class of executed instruction
system.cpu0.op_class::SimdFloatDiv                  0      0.00%     77.51% # Class of executed instruction
system.cpu0.op_class::SimdFloatMisc                 0      0.00%     77.51% # Class of executed instruction
system.cpu0.op_class::SimdFloatMult                 2      0.00%     77.51% # Class of executed instruction
system.cpu0.op_class::SimdFloatMultAcc              0      0.00%     77.51% # Class of executed instruction
system.cpu0.op_class::SimdFloatSqrt                 0      0.00%     77.51% # Class of executed instruction
system.cpu0.op_class::SimdReduceAdd                 0      0.00%     77.51% # Class of executed instruction
system.cpu0.op_class::SimdReduceAlu                 0      0.00%     77.51% # Class of executed instruction
system.cpu0.op_class::SimdReduceCmp                 0      0.00%     77.51% # Class of executed instruction
system.cpu0.op_class::SimdFloatReduceAdd            0      0.00%     77.51% # Class of executed instruction
system.cpu0.op_class::SimdFloatReduceCmp            0      0.00%     77.51% # Class of executed instruction
system.cpu0.op_class::SimdAes                       0      0.00%     77.51% # Class of executed instruction
system.cpu0.op_class::SimdAesMix                    0      0.00%     77.51% # Class of executed instruction
system.cpu0.op_class::SimdSha1Hash                  0      0.00%     77.51% # Class of executed instruction
system.cpu0.op_class::SimdSha1Hash2                 0      0.00%     77.51% # Class of executed instruction
system.cpu0.op_class::SimdSha256Hash                0      0.00%     77.51% # Class of executed instruction
system.cpu0.op_class::SimdSha256Hash2               0      0.00%     77.51% # Class of executed instruction
system.cpu0.op_class::SimdShaSigma2                 0      0.00%     77.51% # Class of executed instruction
system.cpu0.op_class::SimdShaSigma3                 0      0.00%     77.51% # Class of executed instruction
system.cpu0.op_class::SimdPredAlu                   0      0.00%     77.51% # Class of executed instruction
system.cpu0.op_class::MemRead                    5514     11.09%     88.60% # Class of executed instruction
system.cpu0.op_class::MemWrite                   4065      8.18%     96.78% # Class of executed instruction
system.cpu0.op_class::FloatMemRead                286      0.58%     97.36% # Class of executed instruction
system.cpu0.op_class::FloatMemWrite              1314      2.64%    100.00% # Class of executed instruction
system.cpu0.op_class::IprAccess                     0      0.00%    100.00% # Class of executed instruction
system.cpu0.op_class::InstPrefetch                  0      0.00%    100.00% # Class of executed instruction
system.cpu0.op_class::total                     49709                       # Class of executed instruction
system.cpu0.workload.numSyscalls                   41                       # Number of system calls
system.cpu1.Branches                           657115                       # Number of branches fetched
system.cpu1.committedInsts                   16609283                       # Number of instructions committed
system.cpu1.committedOps                     28394806                       # Number of ops (including micro ops) committed
system.cpu1.idle_fraction                    0.025050                       # Percentage of idle cycles
system.cpu1.not_idle_fraction                0.974950                       # Percentage of non-idle cycles
system.cpu1.numCycles                       587015511                       # number of cpu cycles simulated
system.cpu1.numWorkItemsCompleted                   0                       # number of work items this cpu completed
system.cpu1.numWorkItemsStarted                     0                       # number of work items this cpu started
system.cpu1.num_busy_cycles              572310531.601238                       # Number of busy cycles
system.cpu1.num_cc_register_reads             3195198                       # number of times the CC registers were read
system.cpu1.num_cc_register_writes            7906045                       # number of times the CC registers were written
system.cpu1.num_conditional_control_insts       616104                       # number of instructions that are conditional controls
system.cpu1.num_fp_alu_accesses                 20552                       # Number of float alu accesses
system.cpu1.num_fp_insts                        20552                       # number of float instructions
system.cpu1.num_fp_register_reads               25431                       # number of times the floating registers were read
system.cpu1.num_fp_register_writes              17513                       # number of times the floating registers were written
system.cpu1.num_func_calls                       1847                       # number of times a function call or return occured
system.cpu1.num_idle_cycles              14704979.398762                       # Number of idle cycles
system.cpu1.num_int_alu_accesses             28378115                       # Number of integer alu accesses
system.cpu1.num_int_insts                    28378115                       # number of integer instructions
system.cpu1.num_int_register_reads           71364765                       # number of times the integer registers were read
system.cpu1.num_int_register_writes          24971343                       # number of times the integer registers were written
system.cpu1.num_load_insts                    8320124                       # Number of load instructions
system.cpu1.num_mem_refs                     12168922                       # number of memory refs
system.cpu1.num_store_insts                   3848798                       # Number of store instructions
system.cpu1.num_vec_alu_accesses                    0                       # Number of vector alu accesses
system.cpu1.num_vec_insts                           0                       # number of vector instructions
system.cpu1.num_vec_register_reads                  0                       # number of times the vector registers were read
system.cpu1.num_vec_register_writes                 0                       # number of times the vector registers were written
system.cpu1.op_class::No_OpClass                 3976      0.01%      0.01% # Class of executed instruction
system.cpu1.op_class::IntAlu                 15123919     53.26%     53.28% # Class of executed instruction
system.cpu1.op_class::IntMult                 1068751      3.76%     57.04% # Class of executed instruction
system.cpu1.op_class::IntDiv                    16496      0.06%     57.10% # Class of executed instruction
system.cpu1.op_class::FloatAdd                   3826      0.01%     57.11% # Class of executed instruction
system.cpu1.op_class::FloatCmp                      0      0.00%     57.11% # Class of executed instruction
system.cpu1.op_class::FloatCvt                      0      0.00%     57.11% # Class of executed instruction
system.cpu1.op_class::FloatMult                     0      0.00%     57.11% # Class of executed instruction
system.cpu1.op_class::FloatMultAcc                  0      0.00%     57.11% # Class of executed instruction
system.cpu1.op_class::FloatDiv                      0      0.00%     57.11% # Class of executed instruction
system.cpu1.op_class::FloatMisc                     0      0.00%     57.11% # Class of executed instruction
system.cpu1.op_class::FloatSqrt                     0      0.00%     57.11% # Class of executed instruction
system.cpu1.op_class::SimdAdd                       0      0.00%     57.11% # Class of executed instruction
system.cpu1.op_class::SimdAddAcc                    0      0.00%     57.11% # Class of executed instruction
system.cpu1.op_class::SimdAlu                     898      0.00%     57.12% # Class of executed instruction
system.cpu1.op_class::SimdCmp                       0      0.00%     57.12% # Class of executed instruction
system.cpu1.op_class::SimdCvt                      20      0.00%     57.12% # Class of executed instruction
system.cpu1.op_class::SimdMisc                   1248      0.00%     57.12% # Class of executed instruction
system.cpu1.op_class::SimdMult                      0      0.00%     57.12% # Class of executed instruction
system.cpu1.op_class::SimdMultAcc                   0      0.00%     57.12% # Class of executed instruction
system.cpu1.op_class::SimdShift                     0      0.00%     57.12% # Class of executed instruction
system.cpu1.op_class::SimdShiftAcc                  0      0.00%     57.12% # Class of executed instruction
system.cpu1.op_class::SimdDiv                       0      0.00%     57.12% # Class of executed instruction
system.cpu1.op_class::SimdSqrt                      0      0.00%     57.12% # Class of executed instruction
system.cpu1.op_class::SimdFloatAdd               2320      0.01%     57.13% # Class of executed instruction
system.cpu1.op_class::SimdFloatAlu                  0      0.00%     57.13% # Class of executed instruction
system.cpu1.op_class::SimdFloatCmp                  0      0.00%     57.13% # Class of executed instruction
system.cpu1.op_class::SimdFloatCvt               1504      0.01%     57.13% # Class of executed instruction
system.cpu1.op_class::SimdFloatDiv                232      0.00%     57.13% # Class of executed instruction
system.cpu1.op_class::SimdFloatMisc                 0      0.00%     57.13% # Class of executed instruction
system.cpu1.op_class::SimdFloatMult              2724      0.01%     57.14% # Class of executed instruction
system.cpu1.op_class::SimdFloatMultAcc              0      0.00%     57.14% # Class of executed instruction
system.cpu1.op_class::SimdFloatSqrt                 0      0.00%     57.14% # Class of executed instruction
system.cpu1.op_class::SimdReduceAdd                 0      0.00%     57.14% # Class of executed instruction
system.cpu1.op_class::SimdReduceAlu                 0      0.00%     57.14% # Class of executed instruction
system.cpu1.op_class::SimdReduceCmp                 0      0.00%     57.14% # Class of executed instruction
system.cpu1.op_class::SimdFloatReduceAdd            0      0.00%     57.14% # Class of executed instruction
system.cpu1.op_class::SimdFloatReduceCmp            0      0.00%     57.14% # Class of executed instruction
system.cpu1.op_class::SimdAes                       0      0.00%     57.14% # Class of executed instruction
system.cpu1.op_class::SimdAesMix                    0      0.00%     57.14% # Class of executed instruction
system.cpu1.op_class::SimdSha1Hash                  0      0.00%     57.14% # Class of executed instruction
system.cpu1.op_class::SimdSha1Hash2                 0      0.00%     57.14% # Class of executed instruction
system.cpu1.op_class::SimdSha256Hash                0      0.00%     57.14% # Class of executed instruction
system.cpu1.op_class::SimdSha256Hash2               0      0.00%     57.14% # Class of executed instruction
system.cpu1.op_class::SimdShaSigma2                 0      0.00%     57.14% # Class of executed instruction
system.cpu1.op_class::SimdShaSigma3                 0      0.00%     57.14% # Class of executed instruction
system.cpu1.op_class::SimdPredAlu                   0      0.00%     57.14% # Class of executed instruction
system.cpu1.op_class::MemRead                 8314903     29.28%     86.43% # Class of executed instruction
system.cpu1.op_class::MemWrite                3847171     13.55%     99.98% # Class of executed instruction
system.cpu1.op_class::FloatMemRead               5221      0.02%     99.99% # Class of executed instruction
system.cpu1.op_class::FloatMemWrite              1627      0.01%    100.00% # Class of executed instruction
system.cpu1.op_class::IprAccess                     0      0.00%    100.00% # Class of executed instruction
system.cpu1.op_class::InstPrefetch                  0      0.00%    100.00% # Class of executed instruction
system.cpu1.op_class::total                  28394836                       # Class of executed instruction
system.cpu2.Branches                          1359610                       # Number of branches fetched
system.cpu2.committedInsts                   19786668                       # Number of instructions committed
system.cpu2.committedOps                     34339799                       # Number of ops (including micro ops) committed
system.cpu2.idle_fraction                    0.013347                       # Percentage of idle cycles
system.cpu2.not_idle_fraction                0.986653                       # Percentage of non-idle cycles
system.cpu2.numCycles                       583691997                       # number of cpu cycles simulated
system.cpu2.numWorkItemsCompleted                   0                       # number of work items this cpu completed
system.cpu2.numWorkItemsStarted                     0                       # number of work items this cpu started
system.cpu2.num_busy_cycles              575901371.876444                       # Number of busy cycles
system.cpu2.num_cc_register_reads             5949943                       # number of times the CC registers were read
system.cpu2.num_cc_register_writes            9745833                       # number of times the CC registers were written
system.cpu2.num_conditional_control_insts       997426                       # number of instructions that are conditional controls
system.cpu2.num_fp_alu_accesses                 22453                       # Number of float alu accesses
system.cpu2.num_fp_insts                        22453                       # number of float instructions
system.cpu2.num_fp_register_reads               28233                       # number of times the floating registers were read
system.cpu2.num_fp_register_writes              18966                       # number of times the floating registers were written
system.cpu2.num_func_calls                     194967                       # number of times a function call or return occured
system.cpu2.num_idle_cycles              7790625.123556                       # Number of idle cycles
system.cpu2.num_int_alu_accesses             34298801                       # Number of integer alu accesses
system.cpu2.num_int_insts                    34298801                       # number of integer instructions
system.cpu2.num_int_register_reads           82903074                       # number of times the integer registers were read
system.cpu2.num_int_register_writes          29869059                       # number of times the integer registers were written
system.cpu2.num_load_insts                    8858362                       # Number of load instructions
system.cpu2.num_mem_refs                     13027526                       # number of memory refs
system.cpu2.num_store_insts                   4169164                       # Number of store instructions
system.cpu2.num_vec_alu_accesses                    0                       # Number of vector alu accesses
system.cpu2.num_vec_insts                           0                       # number of vector instructions
system.cpu2.num_vec_register_reads                  0                       # number of times the vector registers were read
system.cpu2.num_vec_register_writes                 0                       # number of times the vector registers were written
system.cpu2.op_class::No_OpClass                27013      0.08%      0.08% # Class of executed instruction
system.cpu2.op_class::IntAlu                 20185928     58.78%     58.86% # Class of executed instruction
system.cpu2.op_class::IntMult                 1068751      3.11%     61.97% # Class of executed instruction
system.cpu2.op_class::IntDiv                    16504      0.05%     62.02% # Class of executed instruction
system.cpu2.op_class::FloatAdd                   3940      0.01%     62.03% # Class of executed instruction
system.cpu2.op_class::FloatCmp                      0      0.00%     62.03% # Class of executed instruction
system.cpu2.op_class::FloatCvt                      0      0.00%     62.03% # Class of executed instruction
system.cpu2.op_class::FloatMult                     0      0.00%     62.03% # Class of executed instruction
system.cpu2.op_class::FloatMultAcc                  0      0.00%     62.03% # Class of executed instruction
system.cpu2.op_class::FloatDiv                      0      0.00%     62.03% # Class of executed instruction
system.cpu2.op_class::FloatMisc                     0      0.00%     62.03% # Class of executed instruction
system.cpu2.op_class::FloatSqrt                     0      0.00%     62.03% # Class of executed instruction
system.cpu2.op_class::SimdAdd                       0      0.00%     62.03% # Class of executed instruction
system.cpu2.op_class::SimdAddAcc                    0      0.00%     62.03% # Class of executed instruction
system.cpu2.op_class::SimdAlu                    1658      0.00%     62.04% # Class of executed instruction
system.cpu2.op_class::SimdCmp                       0      0.00%     62.04% # Class of executed instruction
system.cpu2.op_class::SimdCvt                     210      0.00%     62.04% # Class of executed instruction
system.cpu2.op_class::SimdMisc                   1564      0.00%     62.04% # Class of executed instruction
system.cpu2.op_class::SimdMult                      0      0.00%     62.04% # Class of executed instruction
system.cpu2.op_class::SimdMultAcc                   0      0.00%     62.04% # Class of executed instruction
system.cpu2.op_class::SimdShift                     0      0.00%     62.04% # Class of executed instruction
system.cpu2.op_class::SimdShiftAcc                  0      0.00%     62.04% # Class of executed instruction
system.cpu2.op_class::SimdDiv                       0      0.00%     62.04% # Class of executed instruction
system.cpu2.op_class::SimdSqrt                      0      0.00%     62.04% # Class of executed instruction
system.cpu2.op_class::SimdFloatAdd               2302      0.01%     62.05% # Class of executed instruction
system.cpu2.op_class::SimdFloatAlu                  0      0.00%     62.05% # Class of executed instruction
system.cpu2.op_class::SimdFloatCmp                  0      0.00%     62.05% # Class of executed instruction
system.cpu2.op_class::SimdFloatCvt               1504      0.00%     62.05% # Class of executed instruction
system.cpu2.op_class::SimdFloatDiv                232      0.00%     62.06% # Class of executed instruction
system.cpu2.op_class::SimdFloatMisc                 0      0.00%     62.06% # Class of executed instruction
system.cpu2.op_class::SimdFloatMult              2704      0.01%     62.06% # Class of executed instruction
system.cpu2.op_class::SimdFloatMultAcc              0      0.00%     62.06% # Class of executed instruction
system.cpu2.op_class::SimdFloatSqrt                 0      0.00%     62.06% # Class of executed instruction
system.cpu2.op_class::SimdReduceAdd                 0      0.00%     62.06% # Class of executed instruction
system.cpu2.op_class::SimdReduceAlu                 0      0.00%     62.06% # Class of executed instruction
system.cpu2.op_class::SimdReduceCmp                 0      0.00%     62.06% # Class of executed instruction
system.cpu2.op_class::SimdFloatReduceAdd            0      0.00%     62.06% # Class of executed instruction
system.cpu2.op_class::SimdFloatReduceCmp            0      0.00%     62.06% # Class of executed instruction
system.cpu2.op_class::SimdAes                       0      0.00%     62.06% # Class of executed instruction
system.cpu2.op_class::SimdAesMix                    0      0.00%     62.06% # Class of executed instruction
system.cpu2.op_class::SimdSha1Hash                  0      0.00%     62.06% # Class of executed instruction
system.cpu2.op_class::SimdSha1Hash2                 0      0.00%     62.06% # Class of executed instruction
system.cpu2.op_class::SimdSha256Hash                0      0.00%     62.06% # Class of executed instruction
system.cpu2.op_class::SimdSha256Hash2               0      0.00%     62.06% # Class of executed instruction
system.cpu2.op_class::SimdShaSigma2                 0      0.00%     62.06% # Class of executed instruction
system.cpu2.op_class::SimdShaSigma3                 0      0.00%     62.06% # Class of executed instruction
system.cpu2.op_class::SimdPredAlu                   0      0.00%     62.06% # Class of executed instruction
system.cpu2.op_class::MemRead                 8852967     25.78%     87.84% # Class of executed instruction
system.cpu2.op_class::MemWrite                4167277     12.14%     99.98% # Class of executed instruction
system.cpu2.op_class::FloatMemRead               5395      0.02%     99.99% # Class of executed instruction
system.cpu2.op_class::FloatMemWrite              1887      0.01%    100.00% # Class of executed instruction
system.cpu2.op_class::IprAccess                     0      0.00%    100.00% # Class of executed instruction
system.cpu2.op_class::InstPrefetch                  0      0.00%    100.00% # Class of executed instruction
system.cpu2.op_class::total                  34339836                       # Class of executed instruction
system.cpu3.Branches                           699093                       # Number of branches fetched
system.cpu3.committedInsts                   17687312                       # Number of instructions committed
system.cpu3.committedOps                     30233263                       # Number of ops (including micro ops) committed
system.cpu3.idle_fraction                    0.017629                       # Percentage of idle cycles
system.cpu3.not_idle_fraction                0.982371                       # Percentage of non-idle cycles
system.cpu3.numCycles                       591318792                       # number of cpu cycles simulated
system.cpu3.numWorkItemsCompleted                   0                       # number of work items this cpu completed
system.cpu3.numWorkItemsStarted                     0                       # number of work items this cpu started
system.cpu3.num_busy_cycles              580894247.578198                       # Number of busy cycles
system.cpu3.num_cc_register_reads             3400044                       # number of times the CC registers were read
system.cpu3.num_cc_register_writes            8422110                       # number of times the CC registers were written
system.cpu3.num_conditional_control_insts       655624                       # number of instructions that are conditional controls
system.cpu3.num_fp_alu_accesses                 20567                       # Number of float alu accesses
system.cpu3.num_fp_insts                        20567                       # number of float instructions
system.cpu3.num_fp_register_reads               25363                       # number of times the floating registers were read
system.cpu3.num_fp_register_writes              17482                       # number of times the floating registers were written
system.cpu3.num_func_calls                       1801                       # number of times a function call or return occured
system.cpu3.num_idle_cycles              10424544.421802                       # Number of idle cycles
system.cpu3.num_int_alu_accesses             30216540                       # Number of integer alu accesses
system.cpu3.num_int_insts                    30216540                       # number of integer instructions
system.cpu3.num_int_register_reads           75989025                       # number of times the integer registers were read
system.cpu3.num_int_register_writes          26591275                       # number of times the integer registers were written
system.cpu3.num_load_insts                    8860160                       # Number of load instructions
system.cpu3.num_mem_refs                     12957191                       # number of memory refs
system.cpu3.num_store_insts                   4097031                       # Number of store instructions
system.cpu3.num_vec_alu_accesses                    0                       # Number of vector alu accesses
system.cpu3.num_vec_insts                           0                       # number of vector instructions
system.cpu3.num_vec_register_reads                  0                       # number of times the vector registers were read
system.cpu3.num_vec_register_writes                 0                       # number of times the vector registers were written
system.cpu3.op_class::No_OpClass                 4109      0.01%      0.01% # Class of executed instruction
system.cpu3.op_class::IntAlu                 16103510     53.26%     53.28% # Class of executed instruction
system.cpu3.op_class::IntMult                 1138215      3.76%     57.04% # Class of executed instruction
system.cpu3.op_class::IntDiv                    17564      0.06%     57.10% # Class of executed instruction
system.cpu3.op_class::FloatAdd                   3800      0.01%     57.11% # Class of executed instruction
system.cpu3.op_class::FloatCmp                      0      0.00%     57.11% # Class of executed instruction
system.cpu3.op_class::FloatCvt                      0      0.00%     57.11% # Class of executed instruction
system.cpu3.op_class::FloatMult                     0      0.00%     57.11% # Class of executed instruction
system.cpu3.op_class::FloatMultAcc                  0      0.00%     57.11% # Class of executed instruction
system.cpu3.op_class::FloatDiv                      0      0.00%     57.11% # Class of executed instruction
system.cpu3.op_class::FloatMisc                     0      0.00%     57.11% # Class of executed instruction
system.cpu3.op_class::FloatSqrt                     0      0.00%     57.11% # Class of executed instruction
system.cpu3.op_class::SimdAdd                       0      0.00%     57.11% # Class of executed instruction
system.cpu3.op_class::SimdAddAcc                    0      0.00%     57.11% # Class of executed instruction
system.cpu3.op_class::SimdAlu                     894      0.00%     57.12% # Class of executed instruction
system.cpu3.op_class::SimdCmp                       0      0.00%     57.12% # Class of executed instruction
system.cpu3.op_class::SimdCvt                      20      0.00%     57.12% # Class of executed instruction
system.cpu3.op_class::SimdMisc                   1235      0.00%     57.12% # Class of executed instruction
system.cpu3.op_class::SimdMult                      0      0.00%     57.12% # Class of executed instruction
system.cpu3.op_class::SimdMultAcc                   0      0.00%     57.12% # Class of executed instruction
system.cpu3.op_class::SimdShift                     0      0.00%     57.12% # Class of executed instruction
system.cpu3.op_class::SimdShiftAcc                  0      0.00%     57.12% # Class of executed instruction
system.cpu3.op_class::SimdDiv                       0      0.00%     57.12% # Class of executed instruction
system.cpu3.op_class::SimdSqrt                      0      0.00%     57.12% # Class of executed instruction
system.cpu3.op_class::SimdFloatAdd               2310      0.01%     57.13% # Class of executed instruction
system.cpu3.op_class::SimdFloatAlu                  0      0.00%     57.13% # Class of executed instruction
system.cpu3.op_class::SimdFloatCmp                  0      0.00%     57.13% # Class of executed instruction
system.cpu3.op_class::SimdFloatCvt               1497      0.00%     57.13% # Class of executed instruction
system.cpu3.op_class::SimdFloatDiv                231      0.00%     57.13% # Class of executed instruction
system.cpu3.op_class::SimdFloatMisc                 0      0.00%     57.13% # Class of executed instruction
system.cpu3.op_class::SimdFloatMult              2712      0.01%     57.14% # Class of executed instruction
system.cpu3.op_class::SimdFloatMultAcc              0      0.00%     57.14% # Class of executed instruction
system.cpu3.op_class::SimdFloatSqrt                 0      0.00%     57.14% # Class of executed instruction
system.cpu3.op_class::SimdReduceAdd                 0      0.00%     57.14% # Class of executed instruction
system.cpu3.op_class::SimdReduceAlu                 0      0.00%     57.14% # Class of executed instruction
system.cpu3.op_class::SimdReduceCmp                 0      0.00%     57.14% # Class of executed instruction
system.cpu3.op_class::SimdFloatReduceAdd            0      0.00%     57.14% # Class of executed instruction
system.cpu3.op_class::SimdFloatReduceCmp            0      0.00%     57.14% # Class of executed instruction
system.cpu3.op_class::SimdAes                       0      0.00%     57.14% # Class of executed instruction
system.cpu3.op_class::SimdAesMix                    0      0.00%     57.14% # Class of executed instruction
system.cpu3.op_class::SimdSha1Hash                  0      0.00%     57.14% # Class of executed instruction
system.cpu3.op_class::SimdSha1Hash2                 0      0.00%     57.14% # Class of executed instruction
system.cpu3.op_class::SimdSha256Hash                0      0.00%     57.14% # Class of executed instruction
system.cpu3.op_class::SimdSha256Hash2               0      0.00%     57.14% # Class of executed instruction
system.cpu3.op_class::SimdShaSigma2                 0      0.00%     57.14% # Class of executed instruction
system.cpu3.op_class::SimdShaSigma3                 0      0.00%     57.14% # Class of executed instruction
system.cpu3.op_class::SimdPredAlu                   0      0.00%     57.14% # Class of executed instruction
system.cpu3.op_class::MemRead                 8854895     29.29%     86.43% # Class of executed instruction
system.cpu3.op_class::MemWrite                4095352     13.55%     99.98% # Class of executed instruction
system.cpu3.op_class::FloatMemRead               5265      0.02%     99.99% # Class of executed instruction
system.cpu3.op_class::FloatMemWrite              1679      0.01%    100.00% # Class of executed instruction
system.cpu3.op_class::IprAccess                     0      0.00%    100.00% # Class of executed instruction
system.cpu3.op_class::InstPrefetch                  0      0.00%    100.00% # Class of executed instruction
system.cpu3.op_class::total                  30233288                       # Class of executed instruction
system.noc_network.Directory.incomplete_times_seqr        11277                      
system.noc_network.Directory.miss_latency_hist_seqr.first_response_to_completion::bucket_size            8                      
system.noc_network.Directory.miss_latency_hist_seqr.first_response_to_completion::max_bucket           79                      
system.noc_network.Directory.miss_latency_hist_seqr.first_response_to_completion::samples            1                      
system.noc_network.Directory.miss_latency_hist_seqr.first_response_to_completion::mean           64                      
system.noc_network.Directory.miss_latency_hist_seqr.first_response_to_completion::gmean    64.000000                      
system.noc_network.Directory.miss_latency_hist_seqr.first_response_to_completion::stdev          nan                      
system.noc_network.Directory.miss_latency_hist_seqr.first_response_to_completion |           0      0.00%      0.00% |           0      0.00%      0.00% |           0      0.00%      0.00% |           0      0.00%      0.00% |           0      0.00%      0.00% |           0      0.00%      0.00% |           0      0.00%      0.00% |           0      0.00%      0.00% |           1    100.00%    100.00% |           0      0.00%    100.00%
system.noc_network.Directory.miss_latency_hist_seqr.first_response_to_completion::total            1                      
system.noc_network.Directory.miss_latency_hist_seqr.forward_to_first_response::bucket_size            1                      
system.noc_network.Directory.miss_latency_hist_seqr.forward_to_first_response::max_bucket            9                      
system.noc_network.Directory.miss_latency_hist_seqr.forward_to_first_response::samples            1                      
system.noc_network.Directory.miss_latency_hist_seqr.forward_to_first_response::stdev          nan                      
system.noc_network.Directory.miss_latency_hist_seqr.forward_to_first_response |           1    100.00%    100.00% |           0      0.00%    100.00% |           0      0.00%    100.00% |           0      0.00%    100.00% |           0      0.00%    100.00% |           0      0.00%    100.00% |           0      0.00%    100.00% |           0      0.00%    100.00% |           0      0.00%    100.00% |           0      0.00%    100.00%
system.noc_network.Directory.miss_latency_hist_seqr.forward_to_first_response::total            1                      
system.noc_network.Directory.miss_latency_hist_seqr.initial_to_forward::bucket_size            1                      
system.noc_network.Directory.miss_latency_hist_seqr.initial_to_forward::max_bucket            9                      
system.noc_network.Directory.miss_latency_hist_seqr.initial_to_forward::samples            1                      
system.noc_network.Directory.miss_latency_hist_seqr.initial_to_forward::stdev          nan                      
system.noc_network.Directory.miss_latency_hist_seqr.initial_to_forward |           1    100.00%    100.00% |           0      0.00%    100.00% |           0      0.00%    100.00% |           0      0.00%    100.00% |           0      0.00%    100.00% |           0      0.00%    100.00% |           0      0.00%    100.00% |           0      0.00%    100.00% |           0      0.00%    100.00% |           0      0.00%    100.00%
system.noc_network.Directory.miss_latency_hist_seqr.initial_to_forward::total            1                      
system.noc_network.Directory.miss_latency_hist_seqr.issue_to_initial_request::bucket_size            1                      
system.noc_network.Directory.miss_latency_hist_seqr.issue_to_initial_request::max_bucket            9                      
system.noc_network.Directory.miss_latency_hist_seqr.issue_to_initial_request::samples            1                      
system.noc_network.Directory.miss_latency_hist_seqr.issue_to_initial_request::stdev          nan                      
system.noc_network.Directory.miss_latency_hist_seqr.issue_to_initial_request |           1    100.00%    100.00% |           0      0.00%    100.00% |           0      0.00%    100.00% |           0      0.00%    100.00% |           0      0.00%    100.00% |           0      0.00%    100.00% |           0      0.00%    100.00% |           0      0.00%    100.00% |           0      0.00%    100.00% |           0      0.00%    100.00%
system.noc_network.Directory.miss_latency_hist_seqr.issue_to_initial_request::total            1                      
system.noc_network.Directory.miss_mach_latency_hist_seqr::bucket_size            8                      
system.noc_network.Directory.miss_mach_latency_hist_seqr::max_bucket           79                      
system.noc_network.Directory.miss_mach_latency_hist_seqr::samples        11278                      
system.noc_network.Directory.miss_mach_latency_hist_seqr::mean     0.005675                      
system.noc_network.Directory.miss_mach_latency_hist_seqr::stdev     0.602648                      
system.noc_network.Directory.miss_mach_latency_hist_seqr |       11277     99.99%     99.99% |           0      0.00%     99.99% |           0      0.00%     99.99% |           0      0.00%     99.99% |           0      0.00%     99.99% |           0      0.00%     99.99% |           0      0.00%     99.99% |           0      0.00%     99.99% |           1      0.01%    100.00% |           0      0.00%    100.00%
system.noc_network.Directory.miss_mach_latency_hist_seqr::total        11278                      
system.noc_network.Directory_Controller.GETX |    21385043     91.27%     91.27% |     2045610      8.73%    100.00%
system.noc_network.Directory_Controller.GETX::total     23430653                      
system.noc_network.Directory_Controller.I.GETX |       10568     93.70%     93.70% |         710      6.30%    100.00%
system.noc_network.Directory_Controller.I.GETX::total        11278                      
system.noc_network.Directory_Controller.IM.Memory_Data |       10568     93.70%     93.70% |         710      6.30%    100.00%
system.noc_network.Directory_Controller.IM.Memory_Data::total        11278                      
system.noc_network.Directory_Controller.M.GETX |    21374475     91.27%     91.27% |     2044900      8.73%    100.00%
system.noc_network.Directory_Controller.M.GETX::total     23419375                      
system.noc_network.Directory_Controller.M.PUTX |       10064     94.56%     94.56% |         579      5.44%    100.00%
system.noc_network.Directory_Controller.M.PUTX::total        10643                      
system.noc_network.Directory_Controller.MI.Memory_Ack |       10064     94.56%     94.56% |         579      5.44%    100.00%
system.noc_network.Directory_Controller.MI.Memory_Ack::total        10643                      
system.noc_network.Directory_Controller.Memory_Ack |       10064     94.56%     94.56% |         579      5.44%    100.00%
system.noc_network.Directory_Controller.Memory_Ack::total        10643                      
system.noc_network.Directory_Controller.Memory_Data |       10568     93.70%     93.70% |         710      6.30%    100.00%
system.noc_network.Directory_Controller.Memory_Data::total        11278                      
system.noc_network.Directory_Controller.PUTX |       10064     94.56%     94.56% |         579      5.44%    100.00%
system.noc_network.Directory_Controller.PUTX::total        10643                      
system.noc_network.IFETCH.Directory.miss_type_mach_latency_hist_seqr::bucket_size            8                      
system.noc_network.IFETCH.Directory.miss_type_mach_latency_hist_seqr::max_bucket           79                      
system.noc_network.IFETCH.Directory.miss_type_mach_latency_hist_seqr::samples         1595                      
system.noc_network.IFETCH.Directory.miss_type_mach_latency_hist_seqr::mean     0.040125                      
system.noc_network.IFETCH.Directory.miss_type_mach_latency_hist_seqr::stdev     1.602506                      
system.noc_network.IFETCH.Directory.miss_type_mach_latency_hist_seqr |        1594     99.94%     99.94% |           0      0.00%     99.94% |           0      0.00%     99.94% |           0      0.00%     99.94% |           0      0.00%     99.94% |           0      0.00%     99.94% |           0      0.00%     99.94% |           0      0.00%     99.94% |           1      0.06%    100.00% |           0      0.00%    100.00%
system.noc_network.IFETCH.Directory.miss_type_mach_latency_hist_seqr::total         1595                      
system.noc_network.IFETCH.L1Cache.miss_type_mach_latency_hist_seqr::bucket_size            1                      
system.noc_network.IFETCH.L1Cache.miss_type_mach_latency_hist_seqr::max_bucket            9                      
system.noc_network.IFETCH.L1Cache.miss_type_mach_latency_hist_seqr::samples     21363276                      
system.noc_network.IFETCH.L1Cache.miss_type_mach_latency_hist_seqr |    21363276    100.00%    100.00% |           0      0.00%    100.00% |           0      0.00%    100.00% |           0      0.00%    100.00% |           0      0.00%    100.00% |           0      0.00%    100.00% |           0      0.00%    100.00% |           0      0.00%    100.00% |           0      0.00%    100.00% |           0      0.00%    100.00%
system.noc_network.IFETCH.L1Cache.miss_type_mach_latency_hist_seqr::total     21363276                      
system.noc_network.IFETCH.hit_latency_hist_seqr::bucket_size            1                      
system.noc_network.IFETCH.hit_latency_hist_seqr::max_bucket            9                      
system.noc_network.IFETCH.hit_latency_hist_seqr::samples     49029786                      
system.noc_network.IFETCH.hit_latency_hist_seqr |    49029786    100.00%    100.00% |           0      0.00%    100.00% |           0      0.00%    100.00% |           0      0.00%    100.00% |           0      0.00%    100.00% |           0      0.00%    100.00% |           0      0.00%    100.00% |           0      0.00%    100.00% |           0      0.00%    100.00% |           0      0.00%    100.00%
system.noc_network.IFETCH.hit_latency_hist_seqr::total     49029786                      
system.noc_network.IFETCH.latency_hist_seqr::bucket_size            8                      
system.noc_network.IFETCH.latency_hist_seqr::max_bucket           79                      
system.noc_network.IFETCH.latency_hist_seqr::samples     70394657                      
system.noc_network.IFETCH.latency_hist_seqr::mean     0.000001                      
system.noc_network.IFETCH.latency_hist_seqr::stdev     0.007628                      
system.noc_network.IFETCH.latency_hist_seqr |    70394656    100.00%    100.00% |           0      0.00%    100.00% |           0      0.00%    100.00% |           0      0.00%    100.00% |           0      0.00%    100.00% |           0      0.00%    100.00% |           0      0.00%    100.00% |           0      0.00%    100.00% |           1      0.00%    100.00% |           0      0.00%    100.00%
system.noc_network.IFETCH.latency_hist_seqr::total     70394657                      
system.noc_network.IFETCH.miss_latency_hist_seqr::bucket_size            8                      
system.noc_network.IFETCH.miss_latency_hist_seqr::max_bucket           79                      
system.noc_network.IFETCH.miss_latency_hist_seqr::samples     21364871                      
system.noc_network.IFETCH.miss_latency_hist_seqr::mean     0.000003                      
system.noc_network.IFETCH.miss_latency_hist_seqr::stdev     0.013846                      
system.noc_network.IFETCH.miss_latency_hist_seqr |    21364870    100.00%    100.00% |           0      0.00%    100.00% |           0      0.00%    100.00% |           0      0.00%    100.00% |           0      0.00%    100.00% |           0      0.00%    100.00% |           0      0.00%    100.00% |           0      0.00%    100.00% |           1      0.00%    100.00% |           0      0.00%    100.00%
system.noc_network.IFETCH.miss_latency_hist_seqr::total     21364871                      
system.noc_network.L1Cache.incomplete_times_seqr     23419375                      
system.noc_network.L1Cache.miss_mach_latency_hist_seqr::bucket_size            1                      
system.noc_network.L1Cache.miss_mach_latency_hist_seqr::max_bucket            9                      
system.noc_network.L1Cache.miss_mach_latency_hist_seqr::samples     23419375                      
system.noc_network.L1Cache.miss_mach_latency_hist_seqr |    23419375    100.00%    100.00% |           0      0.00%    100.00% |           0      0.00%    100.00% |           0      0.00%    100.00% |           0      0.00%    100.00% |           0      0.00%    100.00% |           0      0.00%    100.00% |           0      0.00%    100.00% |           0      0.00%    100.00% |           0      0.00%    100.00%
system.noc_network.L1Cache.miss_mach_latency_hist_seqr::total     23419375                      
system.noc_network.L1Cache_Controller.Data |        1707      0.01%      0.01% |     7847282     33.49%     33.50% |     7743625     33.05%     66.55% |     7838039     33.45%    100.00%
system.noc_network.L1Cache_Controller.Data::total     23430653                      
system.noc_network.L1Cache_Controller.Fwd_GETX |         218      0.00%      0.00% |     7846805     33.51%     33.51% |     7735056     33.03%     66.53% |     7837296     33.47%    100.00%
system.noc_network.L1Cache_Controller.Fwd_GETX::total     23419375                      
system.noc_network.L1Cache_Controller.I.Ifetch |        1040      0.00%      0.00% |     7156496     33.50%     33.50% |     7053892     33.02%     66.52% |     7153443     33.48%    100.00%
system.noc_network.L1Cache_Controller.I.Ifetch::total     21364871                      
system.noc_network.L1Cache_Controller.I.Load |         353      0.02%      0.02% |      690548     33.45%     33.47% |      688989     33.38%     66.85% |      684338     33.15%    100.00%
system.noc_network.L1Cache_Controller.I.Load::total      2064228                      
system.noc_network.L1Cache_Controller.I.Replacement |          83      5.72%      5.72% |         440     30.34%     36.07% |         579     39.93%     76.00% |         348     24.00%    100.00%
system.noc_network.L1Cache_Controller.I.Replacement::total         1450                      
system.noc_network.L1Cache_Controller.I.Store |         314     20.21%     20.21% |         238     15.32%     35.52% |         744     47.88%     83.40% |         258     16.60%    100.00%
system.noc_network.L1Cache_Controller.I.Store::total         1554                      
system.noc_network.L1Cache_Controller.IM.Data |         314     20.21%     20.21% |         238     15.32%     35.52% |         744     47.88%     83.40% |         258     16.60%    100.00%
system.noc_network.L1Cache_Controller.IM.Data::total         1554                      
system.noc_network.L1Cache_Controller.IS.Data |        1393      0.01%      0.01% |     7847044     33.49%     33.50% |     7742881     33.05%     66.55% |     7837781     33.45%    100.00%
system.noc_network.L1Cache_Controller.IS.Data::total     23429099                      
system.noc_network.L1Cache_Controller.Ifetch |       34921      0.05%      0.05% |    21699443     30.83%     30.88% |    25553882     36.30%     67.18% |    23106411     32.82%    100.00%
system.noc_network.L1Cache_Controller.Ifetch::total     70394657                      
system.noc_network.L1Cache_Controller.Load |        5591      0.03%      0.03% |     6656189     31.78%     31.81% |     7193241     34.35%     66.15% |     7088812     33.85%    100.00%
system.noc_network.L1Cache_Controller.Load::total     20943833                      
system.noc_network.L1Cache_Controller.M.Fwd_GETX |         218      0.00%      0.00% |     7846805     33.51%     33.51% |     7735056     33.03%     66.53% |     7837296     33.47%    100.00%
system.noc_network.L1Cache_Controller.M.Fwd_GETX::total     23419375                      
system.noc_network.L1Cache_Controller.M.Ifetch |       33881      0.07%      0.07% |    14542947     29.66%     29.73% |    18499990     37.73%     67.46% |    15952968     32.54%    100.00%
system.noc_network.L1Cache_Controller.M.Ifetch::total     49029786                      
system.noc_network.L1Cache_Controller.M.Load |        5238      0.03%      0.03% |     5965641     31.60%     31.63% |     6504252     34.45%     66.08% |     6404474     33.92%    100.00%
system.noc_network.L1Cache_Controller.M.Load::total     18879605                      
system.noc_network.L1Cache_Controller.M.Replacement |        1234     11.59%     11.59% |         392      3.68%     15.28% |        8498     79.85%     95.12% |         519      4.88%    100.00%
system.noc_network.L1Cache_Controller.M.Replacement::total        10643                      
system.noc_network.L1Cache_Controller.M.Store |        5270      0.03%      0.03% |     5512660     32.01%     32.04% |     5833703     33.88%     65.92% |     5868298     34.08%    100.00%
system.noc_network.L1Cache_Controller.M.Store::total     17219931                      
system.noc_network.L1Cache_Controller.MI.Writeback_Ack |        1234     11.59%     11.59% |         392      3.68%     15.28% |        8498     79.85%     95.12% |         519      4.88%    100.00%
system.noc_network.L1Cache_Controller.MI.Writeback_Ack::total        10643                      
system.noc_network.L1Cache_Controller.Replacement |        1317     10.89%     10.89% |         832      6.88%     17.77% |        9077     75.06%     92.83% |         867      7.17%    100.00%
system.noc_network.L1Cache_Controller.Replacement::total        12093                      
system.noc_network.L1Cache_Controller.Store |        5584      0.03%      0.03% |     5512898     32.01%     32.04% |     5834447     33.88%     65.92% |     5868556     34.08%    100.00%
system.noc_network.L1Cache_Controller.Store::total     17221485                      
system.noc_network.L1Cache_Controller.Writeback_Ack |        1234     11.59%     11.59% |         392      3.68%     15.28% |        8498     79.85%     95.12% |         519      4.88%    100.00%
system.noc_network.L1Cache_Controller.Writeback_Ack::total        10643                      
system.noc_network.LD.Directory.miss_type_mach_latency_hist_seqr::bucket_size            1                      
system.noc_network.LD.Directory.miss_type_mach_latency_hist_seqr::max_bucket            9                      
system.noc_network.LD.Directory.miss_type_mach_latency_hist_seqr::samples         8476                      
system.noc_network.LD.Directory.miss_type_mach_latency_hist_seqr |        8476    100.00%    100.00% |           0      0.00%    100.00% |           0      0.00%    100.00% |           0      0.00%    100.00% |           0      0.00%    100.00% |           0      0.00%    100.00% |           0      0.00%    100.00% |           0      0.00%    100.00% |           0      0.00%    100.00% |           0      0.00%    100.00%
system.noc_network.LD.Directory.miss_type_mach_latency_hist_seqr::total         8476                      
system.noc_network.LD.L1Cache.miss_type_mach_latency_hist_seqr::bucket_size            1                      
system.noc_network.LD.L1Cache.miss_type_mach_latency_hist_seqr::max_bucket            9                      
system.noc_network.LD.L1Cache.miss_type_mach_latency_hist_seqr::samples      2055752                      
system.noc_network.LD.L1Cache.miss_type_mach_latency_hist_seqr |     2055752    100.00%    100.00% |           0      0.00%    100.00% |           0      0.00%    100.00% |           0      0.00%    100.00% |           0      0.00%    100.00% |           0      0.00%    100.00% |           0      0.00%    100.00% |           0      0.00%    100.00% |           0      0.00%    100.00% |           0      0.00%    100.00%
system.noc_network.LD.L1Cache.miss_type_mach_latency_hist_seqr::total      2055752                      
system.noc_network.LD.hit_latency_hist_seqr::bucket_size            1                      
system.noc_network.LD.hit_latency_hist_seqr::max_bucket            9                      
system.noc_network.LD.hit_latency_hist_seqr::samples     18879605                      
system.noc_network.LD.hit_latency_hist_seqr |    18879605    100.00%    100.00% |           0      0.00%    100.00% |           0      0.00%    100.00% |           0      0.00%    100.00% |           0      0.00%    100.00% |           0      0.00%    100.00% |           0      0.00%    100.00% |           0      0.00%    100.00% |           0      0.00%    100.00% |           0      0.00%    100.00%
system.noc_network.LD.hit_latency_hist_seqr::total     18879605                      
system.noc_network.LD.latency_hist_seqr::bucket_size            1                      
system.noc_network.LD.latency_hist_seqr::max_bucket            9                      
system.noc_network.LD.latency_hist_seqr::samples     20943833                      
system.noc_network.LD.latency_hist_seqr  |    20943833    100.00%    100.00% |           0      0.00%    100.00% |           0      0.00%    100.00% |           0      0.00%    100.00% |           0      0.00%    100.00% |           0      0.00%    100.00% |           0      0.00%    100.00% |           0      0.00%    100.00% |           0      0.00%    100.00% |           0      0.00%    100.00%
system.noc_network.LD.latency_hist_seqr::total     20943833                      
system.noc_network.LD.miss_latency_hist_seqr::bucket_size            1                      
system.noc_network.LD.miss_latency_hist_seqr::max_bucket            9                      
system.noc_network.LD.miss_latency_hist_seqr::samples      2064228                      
system.noc_network.LD.miss_latency_hist_seqr |     2064228    100.00%    100.00% |           0      0.00%    100.00% |           0      0.00%    100.00% |           0      0.00%    100.00% |           0      0.00%    100.00% |           0      0.00%    100.00% |           0      0.00%    100.00% |           0      0.00%    100.00% |           0      0.00%    100.00% |           0      0.00%    100.00%
system.noc_network.LD.miss_latency_hist_seqr::total      2064228                      
system.noc_network.Locked_RMW_Read.Directory.miss_type_mach_latency_hist_seqr::bucket_size            1                      
system.noc_network.Locked_RMW_Read.Directory.miss_type_mach_latency_hist_seqr::max_bucket            9                      
system.noc_network.Locked_RMW_Read.Directory.miss_type_mach_latency_hist_seqr::samples            7                      
system.noc_network.Locked_RMW_Read.Directory.miss_type_mach_latency_hist_seqr |           7    100.00%    100.00% |           0      0.00%    100.00% |           0      0.00%    100.00% |           0      0.00%    100.00% |           0      0.00%    100.00% |           0      0.00%    100.00% |           0      0.00%    100.00% |           0      0.00%    100.00% |           0      0.00%    100.00% |           0      0.00%    100.00%
system.noc_network.Locked_RMW_Read.Directory.miss_type_mach_latency_hist_seqr::total            7                      
system.noc_network.Locked_RMW_Read.L1Cache.miss_type_mach_latency_hist_seqr::bucket_size            1                      
system.noc_network.Locked_RMW_Read.L1Cache.miss_type_mach_latency_hist_seqr::max_bucket            9                      
system.noc_network.Locked_RMW_Read.L1Cache.miss_type_mach_latency_hist_seqr::samples           68                      
system.noc_network.Locked_RMW_Read.L1Cache.miss_type_mach_latency_hist_seqr |          68    100.00%    100.00% |           0      0.00%    100.00% |           0      0.00%    100.00% |           0      0.00%    100.00% |           0      0.00%    100.00% |           0      0.00%    100.00% |           0      0.00%    100.00% |           0      0.00%    100.00% |           0      0.00%    100.00% |           0      0.00%    100.00%
system.noc_network.Locked_RMW_Read.L1Cache.miss_type_mach_latency_hist_seqr::total           68                      
system.noc_network.Locked_RMW_Read.hit_latency_hist_seqr::bucket_size            1                      
system.noc_network.Locked_RMW_Read.hit_latency_hist_seqr::max_bucket            9                      
system.noc_network.Locked_RMW_Read.hit_latency_hist_seqr::samples          346                      
system.noc_network.Locked_RMW_Read.hit_latency_hist_seqr |         346    100.00%    100.00% |           0      0.00%    100.00% |           0      0.00%    100.00% |           0      0.00%    100.00% |           0      0.00%    100.00% |           0      0.00%    100.00% |           0      0.00%    100.00% |           0      0.00%    100.00% |           0      0.00%    100.00% |           0      0.00%    100.00%
system.noc_network.Locked_RMW_Read.hit_latency_hist_seqr::total          346                      
system.noc_network.Locked_RMW_Read.latency_hist_seqr::bucket_size            1                      
system.noc_network.Locked_RMW_Read.latency_hist_seqr::max_bucket            9                      
system.noc_network.Locked_RMW_Read.latency_hist_seqr::samples          421                      
system.noc_network.Locked_RMW_Read.latency_hist_seqr |         421    100.00%    100.00% |           0      0.00%    100.00% |           0      0.00%    100.00% |           0      0.00%    100.00% |           0      0.00%    100.00% |           0      0.00%    100.00% |           0      0.00%    100.00% |           0      0.00%    100.00% |           0      0.00%    100.00% |           0      0.00%    100.00%
system.noc_network.Locked_RMW_Read.latency_hist_seqr::total          421                      
system.noc_network.Locked_RMW_Read.miss_latency_hist_seqr::bucket_size            1                      
system.noc_network.Locked_RMW_Read.miss_latency_hist_seqr::max_bucket            9                      
system.noc_network.Locked_RMW_Read.miss_latency_hist_seqr::samples           75                      
system.noc_network.Locked_RMW_Read.miss_latency_hist_seqr |          75    100.00%    100.00% |           0      0.00%    100.00% |           0      0.00%    100.00% |           0      0.00%    100.00% |           0      0.00%    100.00% |           0      0.00%    100.00% |           0      0.00%    100.00% |           0      0.00%    100.00% |           0      0.00%    100.00% |           0      0.00%    100.00%
system.noc_network.Locked_RMW_Read.miss_latency_hist_seqr::total           75                      
system.noc_network.Locked_RMW_Write.hit_latency_hist_seqr::bucket_size            1                      
system.noc_network.Locked_RMW_Write.hit_latency_hist_seqr::max_bucket            9                      
system.noc_network.Locked_RMW_Write.hit_latency_hist_seqr::samples          421                      
system.noc_network.Locked_RMW_Write.hit_latency_hist_seqr |         421    100.00%    100.00% |           0      0.00%    100.00% |           0      0.00%    100.00% |           0      0.00%    100.00% |           0      0.00%    100.00% |           0      0.00%    100.00% |           0      0.00%    100.00% |           0      0.00%    100.00% |           0      0.00%    100.00% |           0      0.00%    100.00%
system.noc_network.Locked_RMW_Write.hit_latency_hist_seqr::total          421                      
system.noc_network.Locked_RMW_Write.latency_hist_seqr::bucket_size            1                      
system.noc_network.Locked_RMW_Write.latency_hist_seqr::max_bucket            9                      
system.noc_network.Locked_RMW_Write.latency_hist_seqr::samples          421                      
system.noc_network.Locked_RMW_Write.latency_hist_seqr |         421    100.00%    100.00% |           0      0.00%    100.00% |           0      0.00%    100.00% |           0      0.00%    100.00% |           0      0.00%    100.00% |           0      0.00%    100.00% |           0      0.00%    100.00% |           0      0.00%    100.00% |           0      0.00%    100.00% |           0      0.00%    100.00%
system.noc_network.Locked_RMW_Write.latency_hist_seqr::total          421                      
system.noc_network.RMW_Read.Directory.miss_type_mach_latency_hist_seqr::bucket_size            1                      
system.noc_network.RMW_Read.Directory.miss_type_mach_latency_hist_seqr::max_bucket            9                      
system.noc_network.RMW_Read.Directory.miss_type_mach_latency_hist_seqr::samples            7                      
system.noc_network.RMW_Read.Directory.miss_type_mach_latency_hist_seqr |           7    100.00%    100.00% |           0      0.00%    100.00% |           0      0.00%    100.00% |           0      0.00%    100.00% |           0      0.00%    100.00% |           0      0.00%    100.00% |           0      0.00%    100.00% |           0      0.00%    100.00% |           0      0.00%    100.00% |           0      0.00%    100.00%
system.noc_network.RMW_Read.Directory.miss_type_mach_latency_hist_seqr::total            7                      
system.noc_network.RMW_Read.hit_latency_hist_seqr::bucket_size            1                      
system.noc_network.RMW_Read.hit_latency_hist_seqr::max_bucket            9                      
system.noc_network.RMW_Read.hit_latency_hist_seqr::samples      5100484                      
system.noc_network.RMW_Read.hit_latency_hist_seqr |     5100484    100.00%    100.00% |           0      0.00%    100.00% |           0      0.00%    100.00% |           0      0.00%    100.00% |           0      0.00%    100.00% |           0      0.00%    100.00% |           0      0.00%    100.00% |           0      0.00%    100.00% |           0      0.00%    100.00% |           0      0.00%    100.00%
system.noc_network.RMW_Read.hit_latency_hist_seqr::total      5100484                      
system.noc_network.RMW_Read.latency_hist_seqr::bucket_size            1                      
system.noc_network.RMW_Read.latency_hist_seqr::max_bucket            9                      
system.noc_network.RMW_Read.latency_hist_seqr::samples      5100491                      
system.noc_network.RMW_Read.latency_hist_seqr |     5100491    100.00%    100.00% |           0      0.00%    100.00% |           0      0.00%    100.00% |           0      0.00%    100.00% |           0      0.00%    100.00% |           0      0.00%    100.00% |           0      0.00%    100.00% |           0      0.00%    100.00% |           0      0.00%    100.00% |           0      0.00%    100.00%
system.noc_network.RMW_Read.latency_hist_seqr::total      5100491                      
system.noc_network.RMW_Read.miss_latency_hist_seqr::bucket_size            1                      
system.noc_network.RMW_Read.miss_latency_hist_seqr::max_bucket            9                      
system.noc_network.RMW_Read.miss_latency_hist_seqr::samples            7                      
system.noc_network.RMW_Read.miss_latency_hist_seqr |           7    100.00%    100.00% |           0      0.00%    100.00% |           0      0.00%    100.00% |           0      0.00%    100.00% |           0      0.00%    100.00% |           0      0.00%    100.00% |           0      0.00%    100.00% |           0      0.00%    100.00% |           0      0.00%    100.00% |           0      0.00%    100.00%
system.noc_network.RMW_Read.miss_latency_hist_seqr::total            7                      
system.noc_network.ST.Directory.miss_type_mach_latency_hist_seqr::bucket_size            1                      
system.noc_network.ST.Directory.miss_type_mach_latency_hist_seqr::max_bucket            9                      
system.noc_network.ST.Directory.miss_type_mach_latency_hist_seqr::samples         1193                      
system.noc_network.ST.Directory.miss_type_mach_latency_hist_seqr |        1193    100.00%    100.00% |           0      0.00%    100.00% |           0      0.00%    100.00% |           0      0.00%    100.00% |           0      0.00%    100.00% |           0      0.00%    100.00% |           0      0.00%    100.00% |           0      0.00%    100.00% |           0      0.00%    100.00% |           0      0.00%    100.00%
system.noc_network.ST.Directory.miss_type_mach_latency_hist_seqr::total         1193                      
system.noc_network.ST.L1Cache.miss_type_mach_latency_hist_seqr::bucket_size            1                      
system.noc_network.ST.L1Cache.miss_type_mach_latency_hist_seqr::max_bucket            9                      
system.noc_network.ST.L1Cache.miss_type_mach_latency_hist_seqr::samples          279                      
system.noc_network.ST.L1Cache.miss_type_mach_latency_hist_seqr |         279    100.00%    100.00% |           0      0.00%    100.00% |           0      0.00%    100.00% |           0      0.00%    100.00% |           0      0.00%    100.00% |           0      0.00%    100.00% |           0      0.00%    100.00% |           0      0.00%    100.00% |           0      0.00%    100.00% |           0      0.00%    100.00%
system.noc_network.ST.L1Cache.miss_type_mach_latency_hist_seqr::total          279                      
system.noc_network.ST.hit_latency_hist_seqr::bucket_size            1                      
system.noc_network.ST.hit_latency_hist_seqr::max_bucket            9                      
system.noc_network.ST.hit_latency_hist_seqr::samples     12118680                      
system.noc_network.ST.hit_latency_hist_seqr |    12118680    100.00%    100.00% |           0      0.00%    100.00% |           0      0.00%    100.00% |           0      0.00%    100.00% |           0      0.00%    100.00% |           0      0.00%    100.00% |           0      0.00%    100.00% |           0      0.00%    100.00% |           0      0.00%    100.00% |           0      0.00%    100.00%
system.noc_network.ST.hit_latency_hist_seqr::total     12118680                      
system.noc_network.ST.latency_hist_seqr::bucket_size            1                      
system.noc_network.ST.latency_hist_seqr::max_bucket            9                      
system.noc_network.ST.latency_hist_seqr::samples     12120152                      
system.noc_network.ST.latency_hist_seqr  |    12120152    100.00%    100.00% |           0      0.00%    100.00% |           0      0.00%    100.00% |           0      0.00%    100.00% |           0      0.00%    100.00% |           0      0.00%    100.00% |           0      0.00%    100.00% |           0      0.00%    100.00% |           0      0.00%    100.00% |           0      0.00%    100.00%
system.noc_network.ST.latency_hist_seqr::total     12120152                      
system.noc_network.ST.miss_latency_hist_seqr::bucket_size            1                      
system.noc_network.ST.miss_latency_hist_seqr::max_bucket            9                      
system.noc_network.ST.miss_latency_hist_seqr::samples         1472                      
system.noc_network.ST.miss_latency_hist_seqr |        1472    100.00%    100.00% |           0      0.00%    100.00% |           0      0.00%    100.00% |           0      0.00%    100.00% |           0      0.00%    100.00% |           0      0.00%    100.00% |           0      0.00%    100.00% |           0      0.00%    100.00% |           0      0.00%    100.00% |           0      0.00%    100.00%
system.noc_network.ST.miss_latency_hist_seqr::total         1472                      
system.noc_network.delayHist::bucket_size            4                       # delay histogram for all message
system.noc_network.delayHist::max_bucket           39                       # delay histogram for all message
system.noc_network.delayHist::samples        46860671                       # delay histogram for all message
system.noc_network.delayHist::mean          13.766985                       # delay histogram for all message
system.noc_network.delayHist::gmean         12.784850                       # delay histogram for all message
system.noc_network.delayHist::stdev          5.590660                       # delay histogram for all message
system.noc_network.delayHist             |           0      0.00%      0.00% |     1350354      2.88%      2.88% |    24561941     52.41%     55.30% |     8446867     18.03%     73.32% |      761053      1.62%     74.95% |     8043271     17.16%     92.11% |     3016076      6.44%     98.55% |      414244      0.88%     99.43% |      266865      0.57%    100.00% |           0      0.00%    100.00% # delay histogram for all message
system.noc_network.delayHist::total          46860671                       # delay histogram for all message
system.noc_network.delayVCHist.vnet_1::bucket_size            4                       # delay histogram for vnet_1
system.noc_network.delayVCHist.vnet_1::max_bucket           39                       # delay histogram for vnet_1
system.noc_network.delayVCHist.vnet_1::samples     23430653                       # delay histogram for vnet_1
system.noc_network.delayVCHist.vnet_1::mean    11.757602                       # delay histogram for vnet_1
system.noc_network.delayVCHist.vnet_1::gmean    11.709638                       # delay histogram for vnet_1
system.noc_network.delayVCHist.vnet_1::stdev     1.103095                       # delay histogram for vnet_1
system.noc_network.delayVCHist.vnet_1    |           0      0.00%      0.00% |           0      0.00%      0.00% |    15102664     64.46%     64.46% |     8161824     34.83%     99.29% |      166164      0.71%    100.00% |           1      0.00%    100.00% |           0      0.00%    100.00% |           0      0.00%    100.00% |           0      0.00%    100.00% |           0      0.00%    100.00% # delay histogram for vnet_1
system.noc_network.delayVCHist.vnet_1::total     23430653                       # delay histogram for vnet_1
system.noc_network.delayVCHist.vnet_2::bucket_size            4                       # delay histogram for vnet_2
system.noc_network.delayVCHist.vnet_2::max_bucket           39                       # delay histogram for vnet_2
system.noc_network.delayVCHist.vnet_2::samples     23430018                       # delay histogram for vnet_2
system.noc_network.delayVCHist.vnet_2::mean    15.776424                       # delay histogram for vnet_2
system.noc_network.delayVCHist.vnet_2::gmean    13.958825                       # delay histogram for vnet_2
system.noc_network.delayVCHist.vnet_2::stdev     7.295161                       # delay histogram for vnet_2
system.noc_network.delayVCHist.vnet_2    |           0      0.00%      0.00% |     1350354      5.76%      5.76% |     9459277     40.37%     46.14% |      285043      1.22%     47.35% |      594889      2.54%     49.89% |     8043270     34.33%     84.22% |     3016076     12.87%     97.09% |      414244      1.77%     98.86% |      266865      1.14%    100.00% |           0      0.00%    100.00% # delay histogram for vnet_2
system.noc_network.delayVCHist.vnet_2::total     23430018                       # delay histogram for vnet_2
system.noc_network.hit_latency_hist_seqr::bucket_size            1                      
system.noc_network.hit_latency_hist_seqr::max_bucket            9                      
system.noc_network.hit_latency_hist_seqr::samples     85129322                      
system.noc_network.hit_latency_hist_seqr |    85129322    100.00%    100.00% |           0      0.00%    100.00% |           0      0.00%    100.00% |           0      0.00%    100.00% |           0      0.00%    100.00% |           0      0.00%    100.00% |           0      0.00%    100.00% |           0      0.00%    100.00% |           0      0.00%    100.00% |           0      0.00%    100.00%
system.noc_network.hit_latency_hist_seqr::total     85129322                      
system.noc_network.latency_hist_seqr::bucket_size            8                      
system.noc_network.latency_hist_seqr::max_bucket           79                      
system.noc_network.latency_hist_seqr::samples    108559975                      
system.noc_network.latency_hist_seqr::mean     0.000001                      
system.noc_network.latency_hist_seqr::stdev     0.006142                      
system.noc_network.latency_hist_seqr     |   108559974    100.00%    100.00% |           0      0.00%    100.00% |           0      0.00%    100.00% |           0      0.00%    100.00% |           0      0.00%    100.00% |           0      0.00%    100.00% |           0      0.00%    100.00% |           0      0.00%    100.00% |           1      0.00%    100.00% |           0      0.00%    100.00%
system.noc_network.latency_hist_seqr::total    108559975                      
system.noc_network.miss_latency_hist_seqr::bucket_size            8                      
system.noc_network.miss_latency_hist_seqr::max_bucket           79                      
system.noc_network.miss_latency_hist_seqr::samples     23430653                      
system.noc_network.miss_latency_hist_seqr::mean     0.000003                      
system.noc_network.miss_latency_hist_seqr::stdev     0.013222                      
system.noc_network.miss_latency_hist_seqr |    23430652    100.00%    100.00% |           0      0.00%    100.00% |           0      0.00%    100.00% |           0      0.00%    100.00% |           0      0.00%    100.00% |           0      0.00%    100.00% |           0      0.00%    100.00% |           0      0.00%    100.00% |           1      0.00%    100.00% |           0      0.00%    100.00%
system.noc_network.miss_latency_hist_seqr::total     23430653                      
system.noc_network.network.average_flit_latency 297323134311.081909                      
system.noc_network.network.average_flit_network_latency  7826.222441                      
[...]
system.noc_network.socket_controllers3.mem_ctrl.wrPerTurnAround::samples           27                       # Writes before turning the bus around for reads
system.noc_network.socket_controllers3.mem_ctrl.wrPerTurnAround::mean           18                       # Writes before turning the bus around for reads
system.noc_network.socket_controllers3.mem_ctrl.wrPerTurnAround::gmean    18.000000                       # Writes before turning the bus around for reads
system.noc_network.socket_controllers3.mem_ctrl.wrPerTurnAround::18           27    100.00%    100.00% # Writes before turning the bus around for reads
system.noc_network.socket_controllers3.mem_ctrl.wrPerTurnAround::total           27                       # Writes before turning the bus around for reads
system.noc_network.socket_controllers3.mem_ctrl.bytesReadWrQ         8448                       # Total number of bytes read from write queue
system.noc_network.socket_controllers3.mem_ctrl.bytesReadSys        45440                       # Total read bytes from the system interface side
system.noc_network.socket_controllers3.mem_ctrl.bytesWrittenSys        37056                       # Total written bytes from the system interface side
system.noc_network.socket_controllers3.mem_ctrl.avgRdBWSys         0.08                       # Average system read bandwidth in MiByte/s
system.noc_network.socket_controllers3.mem_ctrl.avgWrBWSys         0.06                       # Average system write bandwidth in MiByte/s
system.noc_network.socket_controllers3.mem_ctrl.totGap 591342758000                       # Total gap between requests
system.noc_network.socket_controllers3.mem_ctrl.avgGap 458760867.34                       # Average gap between requests
system.noc_network.socket_controllers3.mem_ctrl.requestorReadBytes::.noc_network.socket_controllers3        36992                       # Per-requestor bytes read from memory
system.noc_network.socket_controllers3.mem_ctrl.requestorWriteBytes::.noc_network.socket_controllers3        31104                       # Per-requestor bytes write to memory
system.noc_network.socket_controllers3.mem_ctrl.requestorReadRate::.noc_network.socket_controllers3 62554.279898658686                       # Per-requestor bytes read from memory rate (Bytes/sec)
system.noc_network.socket_controllers3.mem_ctrl.requestorWriteRate::.noc_network.socket_controllers3 52597.543305792598                       # Per-requestor bytes write to memory rate (Bytes/sec)
system.noc_network.socket_controllers3.mem_ctrl.requestorReadAccesses::.noc_network.socket_controllers3          710                       # Per-requestor read serviced memory accesses
system.noc_network.socket_controllers3.mem_ctrl.requestorWriteAccesses::.noc_network.socket_controllers3          579                       # Per-requestor write serviced memory accesses
system.noc_network.socket_controllers3.mem_ctrl.requestorReadTotalLat::.noc_network.socket_controllers3    119086368                       # Per-requestor read total memory access latency
system.noc_network.socket_controllers3.mem_ctrl.requestorWriteTotalLat::.noc_network.socket_controllers3 34229602358604                       # Per-requestor write total memory access latency
system.noc_network.socket_controllers3.mem_ctrl.requestorReadAvgLat::.noc_network.socket_controllers3    167727.28                       # Per-requestor read average memory access latency
system.noc_network.socket_controllers3.mem_ctrl.requestorWriteAvgLat::.noc_network.socket_controllers3 59118484211.75                       # Per-requestor write average memory access latency
system.noc_network.socket_controllers3.mem_ctrl.nvm.bytes_read::.noc_network.socket_controllers3        45440                       # Number of bytes read from this memory
system.noc_network.socket_controllers3.mem_ctrl.nvm.bytes_read::total        45440                       # Number of bytes read from this memory
system.noc_network.socket_controllers3.mem_ctrl.nvm.bytes_written::.noc_network.socket_controllers3        37056                       # Number of bytes written to this memory
system.noc_network.socket_controllers3.mem_ctrl.nvm.bytes_written::total        37056                       # Number of bytes written to this memory
system.noc_network.socket_controllers3.mem_ctrl.nvm.num_reads::.noc_network.socket_controllers3          710                       # Number of read requests responded to by this memory
system.noc_network.socket_controllers3.mem_ctrl.nvm.num_reads::total          710                       # Number of read requests responded to by this memory
system.noc_network.socket_controllers3.mem_ctrl.nvm.num_writes::.noc_network.socket_controllers3          579                       # Number of write requests responded to by this memory
system.noc_network.socket_controllers3.mem_ctrl.nvm.num_writes::total          579                       # Number of write requests responded to by this memory
system.noc_network.socket_controllers3.mem_ctrl.nvm.bw_read::.noc_network.socket_controllers3        76840                       # Total read bandwidth from this memory (bytes/s)
system.noc_network.socket_controllers3.mem_ctrl.nvm.bw_read::total        76840                       # Total read bandwidth from this memory (bytes/s)
system.noc_network.socket_controllers3.mem_ctrl.nvm.bw_write::.noc_network.socket_controllers3        62663                       # Write bandwidth from this memory (bytes/s)
system.noc_network.socket_controllers3.mem_ctrl.nvm.bw_write::total        62663                       # Write bandwidth from this memory (bytes/s)
system.noc_network.socket_controllers3.mem_ctrl.nvm.bw_total::.noc_network.socket_controllers3       139503                       # Total bandwidth to/from this memory (bytes/s)
system.noc_network.socket_controllers3.mem_ctrl.nvm.bw_total::total       139503                       # Total bandwidth to/from this memory (bytes/s)
system.noc_network.socket_controllers3.mem_ctrl.nvm.readBursts          578                       # Number of NVM read bursts
system.noc_network.socket_controllers3.mem_ctrl.nvm.writeBursts          486                       # Number of NVM write bursts
system.noc_network.socket_controllers3.mem_ctrl.nvm.perBankRdBursts::0           34                       # Per bank write bursts
system.noc_network.socket_controllers3.mem_ctrl.nvm.perBankRdBursts::1           39                       # Per bank write bursts
system.noc_network.socket_controllers3.mem_ctrl.nvm.perBankRdBursts::2           36                       # Per bank write bursts
system.noc_network.socket_controllers3.mem_ctrl.nvm.perBankRdBursts::3           39                       # Per bank write bursts
system.noc_network.socket_controllers3.mem_ctrl.nvm.perBankRdBursts::4           36                       # Per bank write bursts
system.noc_network.socket_controllers3.mem_ctrl.nvm.perBankRdBursts::5           44                       # Per bank write bursts
system.noc_network.socket_controllers3.mem_ctrl.nvm.perBankRdBursts::6           40                       # Per bank write bursts
system.noc_network.socket_controllers3.mem_ctrl.nvm.perBankRdBursts::7           41                       # Per bank write bursts
system.noc_network.socket_controllers3.mem_ctrl.nvm.perBankRdBursts::8           48                       # Per bank write bursts
system.noc_network.socket_controllers3.mem_ctrl.nvm.perBankRdBursts::9           38                       # Per bank write bursts
system.noc_network.socket_controllers3.mem_ctrl.nvm.perBankRdBursts::10           37                       # Per bank write bursts
system.noc_network.socket_controllers3.mem_ctrl.nvm.perBankRdBursts::11           32                       # Per bank write bursts
system.noc_network.socket_controllers3.mem_ctrl.nvm.perBankRdBursts::12           30                       # Per bank write bursts
system.noc_network.socket_controllers3.mem_ctrl.nvm.perBankRdBursts::13           31                       # Per bank write bursts
system.noc_network.socket_controllers3.mem_ctrl.nvm.perBankRdBursts::14           26                       # Per bank write bursts
system.noc_network.socket_controllers3.mem_ctrl.nvm.perBankRdBursts::15           27                       # Per bank write bursts
system.noc_network.socket_controllers3.mem_ctrl.nvm.perBankWrBursts::0           29                       # Per bank write bursts
system.noc_network.socket_controllers3.mem_ctrl.nvm.perBankWrBursts::1           34                       # Per bank write bursts
system.noc_network.socket_controllers3.mem_ctrl.nvm.perBankWrBursts::2           33                       # Per bank write bursts
system.noc_network.socket_controllers3.mem_ctrl.nvm.perBankWrBursts::3           27                       # Per bank write bursts
system.noc_network.socket_controllers3.mem_ctrl.nvm.perBankWrBursts::4           31                       # Per bank write bursts
system.noc_network.socket_controllers3.mem_ctrl.nvm.perBankWrBursts::5           45                       # Per bank write bursts
system.noc_network.socket_controllers3.mem_ctrl.nvm.perBankWrBursts::6           37                       # Per bank write bursts
system.noc_network.socket_controllers3.mem_ctrl.nvm.perBankWrBursts::7           33                       # Per bank write bursts
system.noc_network.socket_controllers3.mem_ctrl.nvm.perBankWrBursts::8           36                       # Per bank write bursts
system.noc_network.socket_controllers3.mem_ctrl.nvm.perBankWrBursts::9           31                       # Per bank write bursts
system.noc_network.socket_controllers3.mem_ctrl.nvm.perBankWrBursts::10           23                       # Per bank write bursts
system.noc_network.socket_controllers3.mem_ctrl.nvm.perBankWrBursts::11           21                       # Per bank write bursts
system.noc_network.socket_controllers3.mem_ctrl.nvm.perBankWrBursts::12           24                       # Per bank write bursts
system.noc_network.socket_controllers3.mem_ctrl.nvm.perBankWrBursts::13           35                       # Per bank write bursts
system.noc_network.socket_controllers3.mem_ctrl.nvm.perBankWrBursts::14           23                       # Per bank write bursts
system.noc_network.socket_controllers3.mem_ctrl.nvm.perBankWrBursts::15           24                       # Per bank write bursts
system.noc_network.socket_controllers3.mem_ctrl.nvm.totQLat    108975992                       # Total ticks spent queuing
system.noc_network.socket_controllers3.mem_ctrl.nvm.totBusLat      1925896                       # Total ticks spent in databus transfers
system.noc_network.socket_controllers3.mem_ctrl.nvm.totMemAccLat    119086368                       # Total ticks spent from burst creation until serviced by the NVM
system.noc_network.socket_controllers3.mem_ctrl.nvm.avgQLat    188539.78                       # Average queueing delay per NVM burst
system.noc_network.socket_controllers3.mem_ctrl.nvm.avgBusLat      3332.00                       # Average bus latency per NVM burst
system.noc_network.socket_controllers3.mem_ctrl.nvm.avgMemAccLat    206031.78                       # Average memory access latency per NVM burst
system.noc_network.socket_controllers3.mem_ctrl.nvm.bytesRead        36992                       # Total number of bytes read from DRAM
system.noc_network.socket_controllers3.mem_ctrl.nvm.bytesWritten        31104                       # Total number of bytes written to DRAM
system.noc_network.socket_controllers3.mem_ctrl.nvm.avgRdBW         0.06                       # Average DRAM read bandwidth in MiBytes/s
system.noc_network.socket_controllers3.mem_ctrl.nvm.avgWrBW         0.05                       # Average DRAM write bandwidth in MiBytes/s
system.noc_network.socket_controllers3.mem_ctrl.nvm.peakBW     19207.00                       # Theoretical peak bandwidth in MiByte/s
system.noc_network.socket_controllers3.mem_ctrl.nvm.busUtil         0.00                       # NVM Data bus utilization in percentage
system.noc_network.socket_controllers3.mem_ctrl.nvm.busUtilRead         0.00                       # NVM Data bus read utilization in percentage
system.noc_network.socket_controllers3.mem_ctrl.nvm.busUtilWrite         0.00                       # NVM Data bus write utilization in percentage
system.noc_network.socket_controllers3.mem_ctrl.nvm.pendingReads::samples          578                       # Reads issued to NVM for which data has not been transferred
system.noc_network.socket_controllers3.mem_ctrl.nvm.pendingReads::mean     0.197232                       # Reads issued to NVM for which data has not been transferred
system.noc_network.socket_controllers3.mem_ctrl.nvm.pendingReads::stdev     0.443547                       # Reads issued to NVM for which data has not been transferred
system.noc_network.socket_controllers3.mem_ctrl.nvm.pendingReads::0          475     82.18%     82.18% # Reads issued to NVM for which data has not been transferred
system.noc_network.socket_controllers3.mem_ctrl.nvm.pendingReads::1           92     15.92%     98.10% # Reads issued to NVM for which data has not been transferred
system.noc_network.socket_controllers3.mem_ctrl.nvm.pendingReads::2           11      1.90%    100.00% # Reads issued to NVM for which data has not been transferred
system.noc_network.socket_controllers3.mem_ctrl.nvm.pendingReads::total          578                       # Reads issued to NVM for which data has not been transferred
system.noc_network.socket_controllers3.mem_ctrl.nvm.pendingWrites::samples          486                       # Number of outstanding writes to NVM
system.noc_network.socket_controllers3.mem_ctrl.nvm.pendingWrites::mean     9.500000                       # Number of outstanding writes to NVM
system.noc_network.socket_controllers3.mem_ctrl.nvm.pendingWrites::gmean     7.553184                       # Number of outstanding writes to NVM
system.noc_network.socket_controllers3.mem_ctrl.nvm.pendingWrites::stdev     5.193473                       # Number of outstanding writes to NVM
system.noc_network.socket_controllers3.mem_ctrl.nvm.pendingWrites::1           27      5.56%      5.56% # Number of outstanding writes to NVM
system.noc_network.socket_controllers3.mem_ctrl.nvm.pendingWrites::2           27      5.56%     11.11% # Number of outstanding writes to NVM
system.noc_network.socket_controllers3.mem_ctrl.nvm.pendingWrites::3           27      5.56%     16.67% # Number of outstanding writes to NVM
system.noc_network.socket_controllers3.mem_ctrl.nvm.pendingWrites::4           27      5.56%     22.22% # Number of outstanding writes to NVM
system.noc_network.socket_controllers3.mem_ctrl.nvm.pendingWrites::5           27      5.56%     27.78% # Number of outstanding writes to NVM
system.noc_network.socket_controllers3.mem_ctrl.nvm.pendingWrites::6           27      5.56%     33.33% # Number of outstanding writes to NVM
system.noc_network.socket_controllers3.mem_ctrl.nvm.pendingWrites::7           27      5.56%     38.89% # Number of outstanding writes to NVM
system.noc_network.socket_controllers3.mem_ctrl.nvm.pendingWrites::8           27      5.56%     44.44% # Number of outstanding writes to NVM
system.noc_network.socket_controllers3.mem_ctrl.nvm.pendingWrites::9           27      5.56%     50.00% # Number of outstanding writes to NVM
system.noc_network.socket_controllers3.mem_ctrl.nvm.pendingWrites::10           27      5.56%     55.56% # Number of outstanding writes to NVM
system.noc_network.socket_controllers3.mem_ctrl.nvm.pendingWrites::11           27      5.56%     61.11% # Number of outstanding writes to NVM
system.noc_network.socket_controllers3.mem_ctrl.nvm.pendingWrites::12           27      5.56%     66.67% # Number of outstanding writes to NVM
system.noc_network.socket_controllers3.mem_ctrl.nvm.pendingWrites::13           27      5.56%     72.22% # Number of outstanding writes to NVM
system.noc_network.socket_controllers3.mem_ctrl.nvm.pendingWrites::14           27      5.56%     77.78% # Number of outstanding writes to NVM
system.noc_network.socket_controllers3.mem_ctrl.nvm.pendingWrites::15           27      5.56%     83.33% # Number of outstanding writes to NVM
system.noc_network.socket_controllers3.mem_ctrl.nvm.pendingWrites::16           27      5.56%     88.89% # Number of outstanding writes to NVM
system.noc_network.socket_controllers3.mem_ctrl.nvm.pendingWrites::17           27      5.56%     94.44% # Number of outstanding writes to NVM
system.noc_network.socket_controllers3.mem_ctrl.nvm.pendingWrites::18           27      5.56%    100.00% # Number of outstanding writes to NVM
system.noc_network.socket_controllers3.mem_ctrl.nvm.pendingWrites::total          486                       # Number of outstanding writes to NVM
system.noc_network.socket_controllers3.mem_ctrl.nvm.bytesPerBank::samples          593                       # Bytes read within a bank before loading new bank
system.noc_network.socket_controllers3.mem_ctrl.nvm.bytesPerBank::mean   113.645868                       # Bytes read within a bank before loading new bank
system.noc_network.socket_controllers3.mem_ctrl.nvm.bytesPerBank::gmean    96.695704                       # Bytes read within a bank before loading new bank
system.noc_network.socket_controllers3.mem_ctrl.nvm.bytesPerBank::stdev    70.833570                       # Bytes read within a bank before loading new bank
system.noc_network.socket_controllers3.mem_ctrl.nvm.bytesPerBank::64-65          354     59.70%     59.70% # Bytes read within a bank before loading new bank
system.noc_network.socket_controllers3.mem_ctrl.nvm.bytesPerBank::128-129          107     18.04%     77.74% # Bytes read within a bank before loading new bank
system.noc_network.socket_controllers3.mem_ctrl.nvm.bytesPerBank::192-193           44      7.42%     85.16% # Bytes read within a bank before loading new bank
system.noc_network.socket_controllers3.mem_ctrl.nvm.bytesPerBank::256-257           87     14.67%     99.83% # Bytes read within a bank before loading new bank
system.noc_network.socket_controllers3.mem_ctrl.nvm.bytesPerBank::320-321            1      0.17%    100.00% # Bytes read within a bank before loading new bank
system.noc_network.socket_controllers3.mem_ctrl.nvm.bytesPerBank::total          593                       # Bytes read within a bank before loading new bank
system.noc_network.socket_controllers3.mem_ctrl.nvm.power_state.pwrStateResidencyTicks::UNDEFINED 591358418000                       # Cumulative time (in ticks) in various power states
system.noc_network.socket_controllers3.mem_ctrl.power_state.pwrStateResidencyTicks::UNDEFINED 591358418000                       # Cumulative time (in ticks) in various power states
system.noc_network.socket_controllers3.power_state.pwrStateResidencyTicks::UNDEFINED 591358418000                       # Cumulative time (in ticks) in various power states
system.noc_network.socket_controllers4.power_state.pwrStateResidencyTicks::UNDEFINED 591358418000                       # Cumulative time (in ticks) in various power states
system.noc_network.socket_controllers4.sequencer.power_state.pwrStateResidencyTicks::UNDEFINED 591358418000                       # Cumulative time (in ticks) in various power states
system.noc_network.socket_controllers5.power_state.pwrStateResidencyTicks::UNDEFINED 591358418000                       # Cumulative time (in ticks) in various power states
system.noc_network.socket_controllers5.sequencer.power_state.pwrStateResidencyTicks::UNDEFINED 591358418000                       # Cumulative time (in ticks) in various power states
system.noc_network.sys_port_proxy.power_state.pwrStateResidencyTicks::UNDEFINED 591358418000                       # Cumulative time (in ticks) in various power states
system.voltage_domain.voltage                       1                       # Voltage in Volts

---------- End Simulation Statistics   ----------
